91
                    3D
 Structure written by MMmdl.
 52 55  0  0  1  0            999 V2000
  -23.2099   14.1852  -30.3170 C   0  0  0  0  0  0
  -22.7479   15.4518  -30.6745 C   0  0  0  0  0  0
  -22.6189   13.4962  -29.2585 C   0  0  0  0  0  0
  -21.6776   16.0268  -29.9872 C   0  0  0  0  0  0
  -21.5618   14.0784  -28.5599 C   0  0  0  0  0  0
  -21.0679   15.3329  -28.9363 C   0  0  0  0  0  0
  -19.3815   21.8680  -25.8100 C   0  0  0  0  0  0
  -18.1822   23.5170  -24.8004 C   0  0  0  0  0  0
  -18.3453   21.4203  -26.5707 C   0  0  0  0  0  0
  -17.0635   22.1086  -26.4023 C   0  0  0  0  0  0
  -22.4130   14.2235  -20.6751 C   0  0  0  0  0  0
  -20.3105   13.8750  -21.3997 C   0  0  0  0  0  0
  -18.4321   20.2861  -27.4933 C   0  0  0  0  0  0
  -19.3445   19.2963  -27.3777 C   0  0  0  0  0  0
  -19.4160   18.1685  -28.2742 C   0  0  0  0  0  0
  -20.0115   14.6208  -24.4870 C   0  0  0  0  0  0
  -20.7176   13.4755  -27.4657 C   0  0  0  0  0  0
  -22.0853   15.3297  -21.6394 C   0  0  0  0  0  0
  -19.8252   15.6724  -28.1240 C   0  0  2  0  0  0
  -19.8255   14.6246  -26.9776 C   0  0  1  0  0  0
  -20.1443   15.5463  -23.2652 C   0  0  0  0  0  0
  -19.3073   22.9124  -24.9358 N   0  0  0  0  0  0
  -17.0918   23.1302  -25.5200 N   0  0  0  0  0  0
  -21.3480   13.4219  -20.6809 N   0  0  0  0  0  0
  -20.8130   14.8894  -22.1327 N   0  0  0  0  0  0
  -19.7248   17.0494  -27.6120 N   0  0  0  0  0  0
  -20.2714   15.1723  -25.6823 N   0  0  0  0  0  0
  -16.0113   21.8211  -26.9606 O   0  0  0  0  0  0
  -23.4721   14.0685  -20.0759 O   0  0  0  0  0  0
  -19.1644   13.4346  -21.3803 O   0  0  0  0  0  0
  -19.2106   18.2212  -29.4852 O   0  0  0  0  0  0
  -19.6109   13.4693  -24.3624 O   0  0  0  0  0  0
  -24.0116   13.7270  -30.8723 H   0  0  0  0  0  0
  -23.2020   15.9770  -31.5035 H   0  0  0  0  0  0
  -22.9762   12.5106  -28.9990 H   0  0  0  0  0  0
  -21.3059   16.9872  -30.3100 H   0  0  0  0  0  0
  -20.3516   21.3992  -25.8804 H   0  0  0  0  0  0
  -18.0591   24.3461  -24.1067 H   0  0  0  0  0  0
  -17.7185   20.2348  -28.3102 H   0  0  0  0  0  0
  -20.0629   19.2929  -26.5687 H   0  0  0  0  0  0
  -20.0949   12.6914  -27.9001 H   0  0  0  0  0  0
  -21.2960   13.0228  -26.6630 H   0  0  0  0  0  0
  -22.0131   16.3178  -21.1851 H   0  0  0  0  0  0
  -22.8103   15.3688  -22.4520 H   0  0  0  0  0  0
  -18.9696   15.4642  -28.7725 H   0  0  0  0  0  0
  -18.8124   14.2373  -26.8626 H   0  0  0  0  0  0
  -19.1356   15.8210  -22.9533 H   0  0  0  0  0  0
  -20.6636   16.4685  -23.5280 H   0  0  0  0  0  0
  -16.2114   23.5926  -25.3616 H   0  0  0  0  0  0
  -21.3264   12.5188  -20.2164 H   0  0  0  0  0  0
  -19.8409   17.1456  -26.6163 H   0  0  0  0  0  0
  -20.8477   15.9968  -25.7182 H   0  0  0  0  0  0
  1  2  1  0  0  0
  1  3  2  0  0  0
  1 33  1  0  0  0
  2  4  2  0  0  0
  2 34  1  0  0  0
  3  5  1  0  0  0
  3 35  1  0  0  0
  4  6  1  0  0  0
  4 36  1  0  0  0
  5  6  2  0  0  0
  5 17  1  0  0  0
  6 19  1  0  0  0
  7  9  2  0  0  0
  7 22  1  0  0  0
  7 37  1  0  0  0
  8 22  2  0  0  0
  8 23  1  0  0  0
  8 38  1  0  0  0
  9 10  1  0  0  0
  9 13  1  0  0  0
 10 23  1  0  0  0
 10 28  2  0  0  0
 11 18  1  0  0  0
 11 24  1  0  0  0
 11 29  2  0  0  0
 12 24  1  0  0  0
 12 25  1  0  0  0
 12 30  2  0  0  0
 13 14  2  0  0  0
 13 39  1  0  0  0
 14 15  1  0  0  0
 14 40  1  0  0  0
 15 26  1  0  0  0
 15 31  2  0  0  0
 16 21  1  0  0  0
 16 27  1  0  0  0
 16 32  2  0  0  0
 17 20  1  0  0  0
 17 41  1  0  0  0
 17 42  1  0  0  0
 18 25  1  0  0  0
 18 43  1  0  0  0
 18 44  1  0  0  0
 19 20  1  0  0  0
 19 26  1  0  0  0
 19 45  1  0  0  0
 20 27  1  0  0  0
 20 46  1  0  0  0
 21 25  1  0  0  0
 21 47  1  0  0  0
 21 48  1  0  0  0
 23 49  1  0  0  0
 24 50  1  0  0  0
 26 51  1  0  0  0
 27 52  1  0  0  0
M  END
> <s_i_glide_gridfile>
Cov2_glide-grid_1

> <i_i_glide_lignum>
78

> <i_i_glide_rotatable_bonds>
8

> <r_i_docking_score>
-9.75247

> <r_i_glide_ligand_efficiency>
-0.304765

> <r_i_glide_ligand_efficiency_sa>
-0.967568

> <r_i_glide_ligand_efficiency_ln>
-2.18384

> <r_i_glide_gscore>
-9.75247

> <r_i_glide_lipo>
-3.25487

> <r_i_glide_hbond>
-0.846706

> <r_i_glide_metal>
-0

> <r_i_glide_rewards>
-1.89476

> <r_i_glide_evdw>
-51.9843

> <r_i_glide_ecoul>
-11.4962

> <r_i_glide_erotb>
0.627923

> <r_i_glide_esite>
-0.0604107

> <r_i_glide_emodel>
-97.1418

> <r_i_glide_energy>
-63.4805

> <r_i_glide_einternal>
9.52302

> <i_i_glide_confnum>
131

> <i_i_glide_posenum>
380

> <r_i_glide_eff_state_penalty>
0

$$$$
64
                    3D
 Structure written by MMmdl.
 56 59  0  0  1  0            999 V2000
  -23.3236   14.2226  -30.7379 C   0  0  0  0  0  0
  -23.0781   15.5818  -30.9276 C   0  0  0  0  0  0
  -22.4761   13.4531  -29.9460 C   0  0  0  0  0  0
  -21.9601   16.1752  -30.3427 C   0  0  0  0  0  0
  -21.3727   14.0510  -29.3421 C   0  0  0  0  0  0
  -21.0917   15.4059  -29.5627 C   0  0  0  0  0  0
  -21.0940   13.9822  -21.0054 C   0  0  0  0  0  0
  -22.0990   14.7606  -21.4573 C   0  0  0  0  0  0
  -19.6115   21.6465  -25.7065 C   0  0  0  0  0  0
  -18.6228   21.3297  -26.5876 C   0  0  0  0  0  0
  -19.8283   13.8771  -21.6913 C   0  0  0  0  0  0
  -22.0106   15.5358  -22.6789 C   0  0  0  0  0  0
  -17.3952   22.1225  -26.5144 C   0  0  0  0  0  0
  -18.4898   23.4020  -24.7870 C   0  0  0  0  0  0
  -18.7160   20.2761  -27.6004 C   0  0  0  0  0  0
  -19.6348   19.2889  -27.6180 C   0  0  0  0  0  0
  -19.6747   18.3063  -28.6694 C   0  0  0  0  0  0
  -20.7473   15.1266  -25.8897 C   0  0  0  0  0  0
  -20.2867   13.3955  -28.5280 C   0  0  0  0  0  0
  -19.7703   15.7835  -28.9117 C   0  0  2  0  0  0
  -19.4569   14.5638  -27.9948 C   0  0  1  0  0  0
  -18.4090   24.6197  -23.8970 C   0  0  0  0  0  0
  -20.5760   16.0111  -24.6474 C   0  0  0  0  0  0
  -19.5520   22.6781  -24.8145 N   0  0  0  0  0  0
  -17.4335   23.1194  -25.6018 N   0  0  0  0  0  0
  -19.8421   14.4130  -22.9350 N   0  0  0  0  0  0
  -20.8920   15.2539  -23.4307 N   0  0  0  0  0  0
  -19.7658   17.0641  -28.1832 N   0  0  0  0  0  0
  -19.6131   14.8248  -26.5488 N   0  0  0  0  0  0
  -18.8066   13.4211  -21.2015 O   0  0  0  0  0  0
  -22.8690   16.3676  -22.9741 O   0  0  0  0  0  0
  -16.3871   21.9356  -27.1899 O   0  0  0  0  0  0
  -19.6104   18.5846  -29.8653 O   0  0  0  0  0  0
  -21.8728   14.8537  -26.2997 O   0  0  0  0  0  0
  -24.1815   13.7620  -31.2013 H   0  0  0  0  0  0
  -23.7431   16.1700  -31.5439 H   0  0  0  0  0  0
  -22.6787   12.4006  -29.8118 H   0  0  0  0  0  0
  -21.7578   17.2189  -30.5303 H   0  0  0  0  0  0
  -21.2131   13.4197  -20.0906 H   0  0  0  0  0  0
  -23.0213   14.8146  -20.8977 H   0  0  0  0  0  0
  -20.5441   21.1014  -25.7139 H   0  0  0  0  0  0
  -17.9898   20.2960  -28.4020 H   0  0  0  0  0  0
  -20.3811   19.1808  -26.8461 H   0  0  0  0  0  0
  -19.6779   12.7923  -29.2034 H   0  0  0  0  0  0
  -20.6418   12.7289  -27.7412 H   0  0  0  0  0  0
  -19.0194   15.8127  -29.7053 H   0  0  0  0  0  0
  -18.4109   14.2902  -28.1359 H   0  0  0  0  0  0
  -18.9146   25.4690  -24.3580 H   0  0  0  0  0  0
  -18.8822   24.4254  -22.9318 H   0  0  0  0  0  0
  -17.3740   24.9030  -23.6917 H   0  0  0  0  0  0
  -19.5657   16.4179  -24.5782 H   0  0  0  0  0  0
  -21.2123   16.8881  -24.7843 H   0  0  0  0  0  0
  -16.5913   23.6649  -25.5249 H   0  0  0  0  0  0
  -18.9888   14.5259  -23.4607 H   0  0  0  0  0  0
  -19.8705   16.9766  -27.1855 H   0  0  0  0  0  0
  -18.7427   14.9423  -26.0518 H   0  0  0  0  0  0
  1  2  1  0  0  0
  1  3  2  0  0  0
  1 35  1  0  0  0
  2  4  2  0  0  0
  2 36  1  0  0  0
  3  5  1  0  0  0
  3 37  1  0  0  0
  4  6  1  0  0  0
  4 38  1  0  0  0
  5  6  2  0  0  0
  5 19  1  0  0  0
  6 20  1  0  0  0
  7  8  2  0  0  0
  7 11  1  0  0  0
  7 39  1  0  0  0
  8 12  1  0  0  0
  8 40  1  0  0  0
  9 10  2  0  0  0
  9 24  1  0  0  0
  9 41  1  0  0  0
 10 13  1  0  0  0
 10 15  1  0  0  0
 11 26  1  0  0  0
 11 30  2  0  0  0
 12 27  1  0  0  0
 12 31  2  0  0  0
 13 25  1  0  0  0
 13 32  2  0  0  0
 14 22  1  0  0  0
 14 24  2  0  0  0
 14 25  1  0  0  0
 15 16  2  0  0  0
 15 42  1  0  0  0
 16 17  1  0  0  0
 16 43  1  0  0  0
 17 28  1  0  0  0
 17 33  2  0  0  0
 18 23  1  0  0  0
 18 29  1  0  0  0
 18 34  2  0  0  0
 19 21  1  0  0  0
 19 44  1  0  0  0
 19 45  1  0  0  0
 20 21  1  0  0  0
 20 28  1  0  0  0
 20 46  1  0  0  0
 21 29  1  0  0  0
 21 47  1  0  0  0
 22 48  1  0  0  0
 22 49  1  0  0  0
 22 50  1  0  0  0
 23 27  1  0  0  0
 23 51  1  0  0  0
 23 52  1  0  0  0
 25 53  1  0  0  0
 26 27  1  0  0  0
 26 54  1  0  0  0
 28 55  1  0  0  0
 29 56  1  0  0  0
M  END
> <s_i_glide_gridfile>
Cov2_glide-grid_1

> <i_i_glide_lignum>
68

> <i_i_glide_rotatable_bonds>
8

> <r_i_docking_score>
-9.72163

> <r_i_glide_ligand_efficiency>
-0.28593

> <r_i_glide_ligand_efficiency_sa>
-0.926303

> <r_i_glide_ligand_efficiency_ln>
-2.14778

> <r_i_glide_gscore>
-9.72163

> <r_i_glide_lipo>
-4.00006

> <r_i_glide_hbond>
-0.77426

> <r_i_glide_metal>
-0

> <r_i_glide_rewards>
-1.00216

> <r_i_glide_evdw>
-59.3138

> <r_i_glide_ecoul>
-10.6778

> <r_i_glide_erotb>
0.659328

> <r_i_glide_esite>
-0.0371182

> <r_i_glide_emodel>
-100.069

> <r_i_glide_energy>
-69.9917

> <r_i_glide_einternal>
15.8758

> <i_i_glide_confnum>
57

> <i_i_glide_posenum>
248

> <r_i_glide_eff_state_penalty>
0

$$$$
53
                    3D
 Structure written by MMmdl.
 55 58  0  0  1  0            999 V2000
  -23.4771   14.8630  -30.8069 C   0  0  0  0  0  0
  -22.7360   15.9919  -31.1440 C   0  0  0  0  0  0
  -23.0949   14.0630  -29.7316 C   0  0  0  0  0  0
  -21.6100   16.3285  -30.3971 C   0  0  0  0  0  0
  -21.9628   14.3899  -28.9923 C   0  0  0  0  0  0
  -21.2138   15.5278  -29.3188 C   0  0  0  0  0  0
  -21.4301   16.8814  -21.2223 C   0  0  0  0  0  0
  -22.0753   15.7758  -20.5442 C   0  0  0  0  0  0
  -19.6592   21.6806  -25.3531 C   0  0  0  0  0  0
  -20.5720   16.5623  -22.2078 C   0  0  0  0  0  0
  -18.5267   23.4173  -24.4123 C   0  0  0  0  0  0
  -18.6550   21.3340  -26.2033 C   0  0  0  0  0  0
  -21.7558   14.5002  -20.8727 C   0  0  0  0  0  0
  -17.4256   22.1305  -26.1367 C   0  0  0  0  0  0
  -20.7638   14.1786  -21.9246 C   0  0  0  0  0  0
  -18.7322   20.2205  -27.1515 C   0  0  0  0  0  0
  -19.5845   19.1722  -27.0570 C   0  0  0  0  0  0
  -19.6116   18.1229  -28.0486 C   0  0  0  0  0  0
  -20.2138   15.0233  -25.0856 C   0  0  0  0  0  0
  -21.4487   13.7301  -27.7372 C   0  0  0  0  0  0
  -20.0345   15.6899  -28.3679 C   0  0  2  0  0  0
  -20.0761   14.3774  -27.5354 C   0  0  1  0  0  0
  -19.3960   15.0112  -23.7782 C   0  0  0  0  0  0
  -19.6099   22.7264  -24.4773 N   0  0  0  0  0  0
  -17.4657   23.1281  -25.2223 N   0  0  0  0  0  0
  -20.2562   15.2769  -22.6041 N   0  0  0  0  0  0
  -22.3440   13.4210  -20.2537 N   0  0  0  0  0  0
  -20.0820   16.9459  -27.5978 N   0  0  0  0  0  0
  -19.6106   14.4567  -26.1432 N   0  0  0  0  0  0
  -16.4102   21.9338  -26.8015 O   0  0  0  0  0  0
  -20.4110   13.0171  -22.1764 O   0  0  0  0  0  0
  -19.2107   18.2841  -29.2011 O   0  0  0  0  0  0
  -21.3244   15.5529  -25.1495 O   0  0  0  0  0  0
  -24.3534   14.6170  -31.3879 H   0  0  0  0  0  0
  -23.0294   16.6038  -31.9850 H   0  0  0  0  0  0
  -23.6720   13.1918  -29.4723 H   0  0  0  0  0  0
  -21.0407   17.2029  -30.6753 H   0  0  0  0  0  0
  -21.6136   17.9085  -20.9374 H   0  0  0  0  0  0
  -22.8084   15.9755  -19.7752 H   0  0  0  0  0  0
  -20.5892   21.1310  -25.3584 H   0  0  0  0  0  0
  -20.0107   17.3099  -22.7521 H   0  0  0  0  0  0
  -18.4205   24.2420  -23.7117 H   0  0  0  0  0  0
  -18.0524   20.2445  -27.9981 H   0  0  0  0  0  0
  -20.2700   19.0646  -26.2289 H   0  0  0  0  0  0
  -21.3723   12.6455  -27.8011 H   0  0  0  0  0  0
  -22.1344   13.9598  -26.9222 H   0  0  0  0  0  0
  -19.1179   15.6659  -28.9653 H   0  0  0  0  0  0
  -19.3742   13.7134  -28.0470 H   0  0  0  0  0  0
  -18.8242   14.0870  -23.6721 H   0  0  0  0  0  0
  -18.6435   15.7980  -23.8356 H   0  0  0  0  0  0
  -16.6104   23.6494  -25.1105 H   0  0  0  0  0  0
  -23.0432   13.5398  -19.5342 H   0  0  0  0  0  0
  -21.9815   12.4817  -20.4019 H   0  0  0  0  0  0
  -20.4739   16.8860  -26.6676 H   0  0  0  0  0  0
  -18.6925   14.0619  -25.9827 H   0  0  0  0  0  0
  1  2  1  0  0  0
  1  3  2  0  0  0
  1 34  1  0  0  0
  2  4  2  0  0  0
  2 35  1  0  0  0
  3  5  1  0  0  0
  3 36  1  0  0  0
  4  6  1  0  0  0
  4 37  1  0  0  0
  5  6  2  0  0  0
  5 20  1  0  0  0
  6 21  1  0  0  0
  7  8  1  0  0  0
  7 10  2  0  0  0
  7 38  1  0  0  0
  8 13  2  0  0  0
  8 39  1  0  0  0
  9 12  2  0  0  0
  9 24  1  0  0  0
  9 40  1  0  0  0
 10 26  1  0  0  0
 10 41  1  0  0  0
 11 24  2  0  0  0
 11 25  1  0  0  0
 11 42  1  0  0  0
 12 14  1  0  0  0
 12 16  1  0  0  0
 13 15  1  0  0  0
 13 27  1  0  0  0
 14 25  1  0  0  0
 14 30  2  0  0  0
 15 26  1  0  0  0
 15 31  2  0  0  0
 16 17  2  0  0  0
 16 43  1  0  0  0
 17 18  1  0  0  0
 17 44  1  0  0  0
 18 28  1  0  0  0
 18 32  2  0  0  0
 19 23  1  0  0  0
 19 29  1  0  0  0
 19 33  2  0  0  0
 20 22  1  0  0  0
 20 45  1  0  0  0
 20 46  1  0  0  0
 21 22  1  0  0  0
 21 28  1  0  0  0
 21 47  1  0  0  0
 22 29  1  0  0  0
 22 48  1  0  0  0
 23 26  1  0  0  0
 23 49  1  0  0  0
 23 50  1  0  0  0
 25 51  1  0  0  0
 27 52  1  0  0  0
 27 53  1  0  0  0
 28 54  1  0  0  0
 29 55  1  0  0  0
M  END
> <s_i_glide_gridfile>
Cov2_glide-grid_1

> <i_i_glide_lignum>
8

> <i_i_glide_rotatable_bonds>
8

> <r_i_docking_score>
-9.6702

> <r_i_glide_ligand_efficiency>
-0.293036

> <r_i_glide_ligand_efficiency_sa>
-0.939924

> <r_i_glide_ligand_efficiency_ln>
-2.1506

> <r_i_glide_gscore>
-9.6702

> <r_i_glide_lipo>
-3.79169

> <r_i_glide_hbond>
-0.925128

> <r_i_glide_metal>
-0

> <r_i_glide_rewards>
-1.08703

> <r_i_glide_evdw>
-51.6331

> <r_i_glide_ecoul>
-12.4748

> <r_i_glide_erotb>
0.702952

> <r_i_glide_esite>
-0.116435

> <r_i_glide_emodel>
-97.8112

> <r_i_glide_energy>
-64.1079

> <r_i_glide_einternal>
6.34585

> <i_i_glide_confnum>
13

> <i_i_glide_posenum>
32

> <r_i_glide_eff_state_penalty>
0

$$$$
2
                    3D
 Structure written by MMmdl.
 61 64  0  0  1  0            999 V2000
  -20.7948   14.8186  -21.6135 C   0  0  0  0  0  0
  -19.7578   14.0278  -22.0986 C   0  0  0  0  0  0
  -21.6966   15.4220  -22.4854 C   0  0  0  0  0  0
  -19.6125   13.8211  -23.4675 C   0  0  0  0  0  0
  -22.4755   15.8193  -24.8019 C   0  0  0  0  0  0
  -22.3223   15.6165  -26.1701 C   0  0  0  0  0  0
  -20.3939   14.2211  -25.7826 C   0  0  0  0  0  0
  -21.5769   15.2267  -23.8848 C   0  0  0  0  0  0
  -20.5186   14.4089  -24.3832 C   0  0  0  0  0  0
  -21.2693   14.8459  -26.6760 C   0  0  0  0  0  0
  -25.7796   17.0566  -32.0644 C   0  0  0  0  0  0
  -19.4821   21.6281  -25.7531 C   0  0  0  0  0  0
  -26.5294   19.0759  -32.8012 C   0  0  0  0  0  0
  -24.5787   17.5330  -31.6348 C   0  0  0  0  0  0
  -18.4495   21.2689  -26.5660 C   0  0  0  0  0  0
  -24.3262   18.9623  -31.8254 C   0  0  0  0  0  0
  -17.2122   22.0418  -26.4403 C   0  0  0  0  0  0
  -18.3768   23.3748  -24.8017 C   0  0  0  0  0  0
  -23.5576   16.7311  -30.9600 C   0  0  0  0  0  0
  -18.5118   20.1705  -27.5310 C   0  0  0  0  0  0
  -23.6131   15.3899  -30.7823 C   0  0  0  0  0  0
  -19.3199   19.0945  -27.4114 C   0  0  0  0  0  0
  -22.6394   14.6188  -30.0554 C   0  0  0  0  0  0
  -19.3703   18.0429  -28.3968 C   0  0  0  0  0  0
  -18.2979   24.5700  -23.8854 C   0  0  0  0  0  0
  -19.6709   15.5430  -28.5175 C   0  0  0  0  0  0
  -20.9686   14.7580  -28.1853 C   0  0  2  0  0  0
  -26.7538   17.8214  -32.6450 N   0  0  0  0  0  0
  -19.4528   22.6767  -24.8814 N   0  0  0  0  0  0
  -25.3497   19.6320  -32.3997 N   0  0  0  0  0  0
  -17.2850   23.0650  -25.5615 N   0  0  0  0  0  0
  -19.6133   16.8512  -27.8442 N   0  0  0  0  0  0
  -22.0504   15.2667  -29.0336 N   0  0  0  0  0  0
  -23.3096   19.5714  -31.5038 O   0  0  0  0  0  0
  -16.1584   21.8204  -27.0294 O   0  0  0  0  0  0
  -22.4106   13.4463  -30.3427 O   0  0  0  0  0  0
  -19.2127   18.2208  -29.6016 O   0  0  0  0  0  0
  -20.8934   14.9715  -20.5497 H   0  0  0  0  0  0
  -19.0602   13.5755  -21.4107 H   0  0  0  0  0  0
  -22.4902   16.0437  -22.0990 H   0  0  0  0  0  0
  -18.8102   13.2051  -23.8492 H   0  0  0  0  0  0
  -23.2802   16.4404  -24.4373 H   0  0  0  0  0  0
  -23.0162   16.1071  -26.8373 H   0  0  0  0  0  0
  -19.5782   13.6142  -26.1538 H   0  0  0  0  0  0
  -26.0330   16.0137  -31.9377 H   0  0  0  0  0  0
  -20.4204   21.0950  -25.8022 H   0  0  0  0  0  0
  -27.2644   19.7293  -33.2613 H   0  0  0  0  0  0
  -22.6981   17.2605  -30.5606 H   0  0  0  0  0  0
  -17.8705   20.2349  -28.4013 H   0  0  0  0  0  0
  -24.4064   14.7948  -31.2014 H   0  0  0  0  0  0
  -19.9574   18.9667  -26.5465 H   0  0  0  0  0  0
  -18.8903   25.3961  -24.2771 H   0  0  0  0  0  0
  -18.6775   24.3192  -22.8940 H   0  0  0  0  0  0
  -17.2703   24.9190  -23.7546 H   0  0  0  0  0  0
  -18.8115   14.9616  -28.1915 H   0  0  0  0  0  0
  -19.5477   15.6369  -29.6007 H   0  0  0  0  0  0
  -20.7988   13.7010  -28.4113 H   0  0  0  0  0  0
  -25.1773   20.6120  -32.5399 H   0  0  0  0  0  0
  -16.4343   23.5890  -25.4386 H   0  0  0  0  0  0
  -19.6998   16.8172  -26.8397 H   0  0  0  0  0  0
  -22.2862   16.2366  -28.8974 H   0  0  0  0  0  0
  1  2  1  0  0  0
  1  3  2  0  0  0
  1 38  1  0  0  0
  2  4  2  0  0  0
  2 39  1  0  0  0
  3  8  1  0  0  0
  3 40  1  0  0  0
  4  9  1  0  0  0
  4 41  1  0  0  0
  5  6  2  0  0  0
  5  8  1  0  0  0
  5 42  1  0  0  0
  6 10  1  0  0  0
  6 43  1  0  0  0
  7  9  1  0  0  0
  7 10  2  0  0  0
  7 44  1  0  0  0
  8  9  2  0  0  0
 10 27  1  0  0  0
 11 14  2  0  0  0
 11 28  1  0  0  0
 11 45  1  0  0  0
 12 15  2  0  0  0
 12 29  1  0  0  0
 12 46  1  0  0  0
 13 28  2  0  0  0
 13 30  1  0  0  0
 13 47  1  0  0  0
 14 16  1  0  0  0
 14 19  1  0  0  0
 15 17  1  0  0  0
 15 20  1  0  0  0
 16 30  1  0  0  0
 16 34  2  0  0  0
 17 31  1  0  0  0
 17 35  2  0  0  0
 18 25  1  0  0  0
 18 29  2  0  0  0
 18 31  1  0  0  0
 19 21  2  0  0  0
 19 48  1  0  0  0
 20 22  2  0  0  0
 20 49  1  0  0  0
 21 23  1  0  0  0
 21 50  1  0  0  0
 22 24  1  0  0  0
 22 51  1  0  0  0
 23 33  1  0  0  0
 23 36  2  0  0  0
 24 32  1  0  0  0
 24 37  2  0  0  0
 25 52  1  0  0  0
 25 53  1  0  0  0
 25 54  1  0  0  0
 26 27  1  0  0  0
 26 32  1  0  0  0
 26 55  1  0  0  0
 26 56  1  0  0  0
 27 33  1  0  0  0
 27 57  1  0  0  0
 30 58  1  0  0  0
 31 59  1  0  0  0
 32 60  1  0  0  0
 33 61  1  0  0  0
M  END
> <s_i_glide_gridfile>
Cov2_glide-grid_1

> <i_i_glide_lignum>
46

> <i_i_glide_rotatable_bonds>
10

> <r_i_docking_score>
-9.60656

> <r_i_glide_ligand_efficiency>
-0.259637

> <r_i_glide_ligand_efficiency_sa>
-0.865168

> <r_i_glide_ligand_efficiency_ln>
-2.08344

> <r_i_glide_gscore>
-9.60656

> <r_i_glide_lipo>
-4.56329

> <r_i_glide_hbond>
-0.514377

> <r_i_glide_metal>
-0

> <r_i_glide_rewards>
-0.751627

> <r_i_glide_evdw>
-59.9468

> <r_i_glide_ecoul>
-9.31565

> <r_i_glide_erotb>
0.661757

> <r_i_glide_esite>
-0.0443371

> <r_i_glide_emodel>
-103.257

> <r_i_glide_energy>
-69.2624

> <r_i_glide_einternal>
12.4189

> <i_i_glide_confnum>
27

> <i_i_glide_posenum>
374

> <r_i_glide_eff_state_penalty>
0

$$$$
51
                    3D
 Structure written by MMmdl.
 56 59  0  0  1  0            999 V2000
  -23.5122   15.2506  -31.0730 C   0  0  0  0  0  0
  -23.0633   16.5682  -31.0098 C   0  0  0  0  0  0
  -22.8106   14.2329  -30.4239 C   0  0  0  0  0  0
  -21.9063   16.8770  -30.2966 C   0  0  0  0  0  0
  -21.6729   14.5464  -29.6795 C   0  0  0  0  0  0
  -21.2027   15.8660  -29.6340 C   0  0  0  0  0  0
  -19.5201   21.7764  -25.5838 C   0  0  0  0  0  0
  -22.4105   15.7000  -21.9729 C   0  0  0  0  0  0
  -18.4105   23.4216  -24.4719 C   0  0  0  0  0  0
  -18.4737   21.4595  -26.3936 C   0  0  0  0  0  0
  -21.4266   14.9029  -22.4704 C   0  0  0  0  0  0
  -17.2306   22.2097  -26.1984 C   0  0  0  0  0  0
  -20.8991   13.8579  -21.6020 C   0  0  0  0  0  0
  -22.5531   14.5901  -19.9970 C   0  0  0  0  0  0
  -18.5393   20.4183  -27.4188 C   0  0  0  0  0  0
  -21.0001   14.9495  -23.8578 C   0  0  0  0  0  0
  -19.2955   19.3017  -27.3160 C   0  0  0  0  0  0
  -21.9142   15.0051  -24.8475 C   0  0  0  0  0  0
  -19.3960   18.3327  -28.3802 C   0  0  0  0  0  0
  -21.6443   15.0882  -26.2553 C   0  0  0  0  0  0
  -20.7194   13.6248  -28.9480 C   0  0  0  0  0  0
  -19.9080   15.9238  -28.8307 C   0  0  2  0  0  0
  -19.9134   14.5816  -28.0534 C   0  0  1  0  0  0
  -23.1913   14.3048  -18.6570 C   0  0  0  0  0  0
  -19.5008   22.7611  -24.6405 N   0  0  0  0  0  0
  -22.9752   15.5490  -20.7393 N   0  0  0  0  0  0
  -17.3077   23.1558  -25.2327 N   0  0  0  0  0  0
  -21.5059   13.8130  -20.3942 N   0  0  0  0  0  0
  -19.7327   17.1032  -27.9650 N   0  0  0  0  0  0
  -20.4528   14.6125  -26.6753 N   0  0  0  0  0  0
  -16.1770   22.0179  -26.8016 O   0  0  0  0  0  0
  -20.0226   13.0494  -21.9018 O   0  0  0  0  0  0
  -19.2107   18.6110  -29.5627 O   0  0  0  0  0  0
  -22.4840   15.5894  -26.9959 O   0  0  0  0  0  0
  -24.4102   15.0216  -31.6259 H   0  0  0  0  0  0
  -23.6089   17.3484  -31.5200 H   0  0  0  0  0  0
  -23.1630   13.2150  -30.4904 H   0  0  0  0  0  0
  -21.5633   17.8995  -30.2755 H   0  0  0  0  0  0
  -20.4598   21.2527  -25.6855 H   0  0  0  0  0  0
  -22.8532   16.4629  -22.5981 H   0  0  0  0  0  0
  -18.3261   24.2011  -23.7185 H   0  0  0  0  0  0
  -17.9596   20.5674  -28.3240 H   0  0  0  0  0  0
  -19.9388   14.9463  -24.0774 H   0  0  0  0  0  0
  -19.8627   19.0877  -26.4211 H   0  0  0  0  0  0
  -22.9680   15.0204  -24.6133 H   0  0  0  0  0  0
  -20.0682   13.1458  -29.6806 H   0  0  0  0  0  0
  -21.1967   12.8144  -28.3960 H   0  0  0  0  0  0
  -19.0902   15.8805  -29.5555 H   0  0  0  0  0  0
  -18.8918   14.2038  -27.9782 H   0  0  0  0  0  0
  -24.1745   14.7710  -18.5760 H   0  0  0  0  0  0
  -23.3218   13.2322  -18.5045 H   0  0  0  0  0  0
  -22.5740   14.6884  -17.8447 H   0  0  0  0  0  0
  -16.4507   23.6490  -25.0358 H   0  0  0  0  0  0
  -21.1899   13.0538  -19.8136 H   0  0  0  0  0  0
  -19.9436   16.9650  -26.9886 H   0  0  0  0  0  0
  -19.8805   14.1489  -25.9849 H   0  0  0  0  0  0
  1  2  1  0  0  0
  1  3  2  0  0  0
  1 35  1  0  0  0
  2  4  2  0  0  0
  2 36  1  0  0  0
  3  5  1  0  0  0
  3 37  1  0  0  0
  4  6  1  0  0  0
  4 38  1  0  0  0
  5  6  2  0  0  0
  5 21  1  0  0  0
  6 22  1  0  0  0
  7 10  2  0  0  0
  7 25  1  0  0  0
  7 39  1  0  0  0
  8 11  2  0  0  0
  8 26  1  0  0  0
  8 40  1  0  0  0
  9 25  2  0  0  0
  9 27  1  0  0  0
  9 41  1  0  0  0
 10 12  1  0  0  0
 10 15  1  0  0  0
 11 13  1  0  0  0
 11 16  1  0  0  0
 12 27  1  0  0  0
 12 31  2  0  0  0
 13 28  1  0  0  0
 13 32  2  0  0  0
 14 24  1  0  0  0
 14 26  2  0  0  0
 14 28  1  0  0  0
 15 17  2  0  0  0
 15 42  1  0  0  0
 16 18  2  0  0  0
 16 43  1  0  0  0
 17 19  1  0  0  0
 17 44  1  0  0  0
 18 20  1  0  0  0
 18 45  1  0  0  0
 19 29  1  0  0  0
 19 33  2  0  0  0
 20 30  1  0  0  0
 20 34  2  0  0  0
 21 23  1  0  0  0
 21 46  1  0  0  0
 21 47  1  0  0  0
 22 23  1  0  0  0
 22 29  1  0  0  0
 22 48  1  0  0  0
 23 30  1  0  0  0
 23 49  1  0  0  0
 24 50  1  0  0  0
 24 51  1  0  0  0
 24 52  1  0  0  0
 27 53  1  0  0  0
 28 54  1  0  0  0
 29 55  1  0  0  0
 30 56  1  0  0  0
M  END
> <s_i_glide_gridfile>
Cov2_glide-grid_1

> <i_i_glide_lignum>
36

> <i_i_glide_rotatable_bonds>
8

> <r_i_docking_score>
-9.59155

> <r_i_glide_ligand_efficiency>
-0.282105

> <r_i_glide_ligand_efficiency_sa>
-0.913909

> <r_i_glide_ligand_efficiency_ln>
-2.11904

> <r_i_glide_gscore>
-9.59155

> <r_i_glide_lipo>
-3.85774

> <r_i_glide_hbond>
-0.844104

> <r_i_glide_metal>
-0

> <r_i_glide_rewards>
-1.02481

> <r_i_glide_evdw>
-55.1288

> <r_i_glide_ecoul>
-11.0604

> <r_i_glide_erotb>
0.669815

> <r_i_glide_esite>
-0.119222

> <r_i_glide_emodel>
-97.5197

> <r_i_glide_energy>
-66.1892

> <r_i_glide_einternal>
10.6907

> <i_i_glide_confnum>
53

> <i_i_glide_posenum>
148

> <r_i_glide_eff_state_penalty>
0

$$$$
74
                    3D
 Structure written by MMmdl.
 58 61  0  0  1  0            999 V2000
  -21.9577   12.6209  -29.3802 C   0  0  0  0  0  0
  -20.6439   12.8896  -29.7516 C   0  0  0  0  0  0
  -22.6090   13.4645  -28.4853 C   0  0  0  0  0  0
  -19.9861   14.0170  -29.2733 C   0  0  0  0  0  0
  -21.9521   14.5857  -27.9817 C   0  0  0  0  0  0
  -20.6495   14.8746  -28.4015 C   0  0  0  0  0  0
  -19.3910   22.6213  -25.4913 C   0  0  0  0  0  0
  -21.5306   16.1703  -21.8649 C   0  0  0  0  0  0
  -22.7040   14.8986  -20.3838 C   0  0  0  0  0  0
  -18.3828   22.0964  -26.2391 C   0  0  0  0  0  0
  -20.7785   15.1318  -22.3146 C   0  0  0  0  0  0
  -17.0410   22.6223  -26.0010 C   0  0  0  0  0  0
  -20.9981   13.8207  -21.7121 C   0  0  0  0  0  0
  -18.0719   24.1128  -24.4018 C   0  0  0  0  0  0
  -18.5789   21.0506  -27.2378 C   0  0  0  0  0  0
  -19.7624   20.8245  -27.8486 C   0  0  0  0  0  0
  -20.0102   19.7437  -28.7591 C   0  0  0  0  0  0
  -20.3110   15.1548  -24.8086 C   0  0  0  0  0  0
  -22.4777   15.6764  -27.0782 C   0  0  0  0  0  0
  -20.1645   16.1813  -27.8217 C   0  0  2  0  0  0
  -21.2274   16.5048  -26.7424 C   0  0  2  0  0  0
  -17.8662   25.2419  -23.4173 C   0  0  0  0  0  0
  -19.7080   15.2594  -23.4027 C   0  0  0  0  0  0
  -19.9289   17.2620  -28.8980 C   0  0  0  0  0  0
  -22.5080   16.0532  -20.9175 N   0  0  0  0  0  0
  -19.2435   23.6252  -24.5827 N   0  0  0  0  0  0
  -21.9617   13.8179  -20.7651 N   0  0  0  0  0  0
  -17.0040   23.6359  -25.1079 N   0  0  0  0  0  0
  -19.6202   18.5495  -28.2906 N   0  0  0  0  0  0
  -20.7179   16.3082  -25.3761 N   0  0  0  0  0  0
  -16.0107   22.2145  -26.5302 O   0  0  0  0  0  0
  -20.4100   12.7839  -22.0018 O   0  0  0  0  0  0
  -20.6140   19.9072  -29.8171 O   0  0  0  0  0  0
  -20.3835   14.0595  -25.3596 O   0  0  0  0  0  0
  -22.4594   11.7443  -29.7642 H   0  0  0  0  0  0
  -20.1276   12.2202  -30.4200 H   0  0  0  0  0  0
  -23.6106   13.2273  -28.1822 H   0  0  0  0  0  0
  -18.9760   14.2245  -29.5936 H   0  0  0  0  0  0
  -20.3992   22.2458  -25.5995 H   0  0  0  0  0  0
  -21.3865   17.1554  -22.2854 H   0  0  0  0  0  0
  -23.4586   14.7475  -19.6166 H   0  0  0  0  0  0
  -17.7363   20.4158  -27.4855 H   0  0  0  0  0  0
  -20.6264   21.4432  -27.6745 H   0  0  0  0  0  0
  -23.0072   15.3255  -26.1925 H   0  0  0  0  0  0
  -23.1780   16.2860  -27.6513 H   0  0  0  0  0  0
  -19.2106   16.0029  -27.3348 H   0  0  0  0  0  0
  -21.5156   17.5553  -26.7977 H   0  0  0  0  0  0
  -18.3438   25.0113  -22.4653 H   0  0  0  0  0  0
  -16.8107   25.4186  -23.2034 H   0  0  0  0  0  0
  -18.3032   26.1663  -23.7903 H   0  0  0  0  0  0
  -18.9247   14.5047  -23.2957 H   0  0  0  0  0  0
  -19.2110   16.2211  -23.3104 H   0  0  0  0  0  0
  -20.8161   17.3358  -29.5341 H   0  0  0  0  0  0
  -19.1045   16.9763  -29.5545 H   0  0  0  0  0  0
  -22.1015   12.9153  -20.3377 H   0  0  0  0  0  0
  -16.0870   23.9965  -24.8911 H   0  0  0  0  0  0
  -19.0792   18.5270  -27.4411 H   0  0  0  0  0  0
  -20.6443   17.1458  -24.8196 H   0  0  0  0  0  0
  1  2  1  0  0  0
  1  3  2  0  0  0
  1 35  1  0  0  0
  2  4  2  0  0  0
  2 36  1  0  0  0
  3  5  1  0  0  0
  3 37  1  0  0  0
  4  6  1  0  0  0
  4 38  1  0  0  0
  5  6  2  0  0  0
  5 19  1  0  0  0
  6 20  1  0  0  0
  7 10  2  0  0  0
  7 26  1  0  0  0
  7 39  1  0  0  0
  8 11  2  0  0  0
  8 25  1  0  0  0
  8 40  1  0  0  0
  9 25  2  0  0  0
  9 27  1  0  0  0
  9 41  1  0  0  0
 10 12  1  0  0  0
 10 15  1  0  0  0
 11 13  1  0  0  0
 11 23  1  0  0  0
 12 28  1  0  0  0
 12 31  2  0  0  0
 13 27  1  0  0  0
 13 32  2  0  0  0
 14 22  1  0  0  0
 14 26  2  0  0  0
 14 28  1  0  0  0
 15 16  2  0  0  0
 15 42  1  0  0  0
 16 17  1  0  0  0
 16 43  1  0  0  0
 17 29  1  0  0  0
 17 33  2  0  0  0
 18 23  1  0  0  0
 18 30  1  0  0  0
 18 34  2  0  0  0
 19 21  1  0  0  0
 19 44  1  0  0  0
 19 45  1  0  0  0
 20 21  1  0  0  0
 20 24  1  0  0  0
 20 46  1  0  0  0
 21 30  1  0  0  0
 21 47  1  0  0  0
 22 48  1  0  0  0
 22 49  1  0  0  0
 22 50  1  0  0  0
 23 51  1  0  0  0
 23 52  1  0  0  0
 24 29  1  0  0  0
 24 53  1  0  0  0
 24 54  1  0  0  0
 27 55  1  0  0  0
 28 56  1  0  0  0
 29 57  1  0  0  0
 30 58  1  0  0  0
M  END
> <s_i_glide_gridfile>
Cov2_glide-grid_1

> <i_i_glide_lignum>
84

> <i_i_glide_rotatable_bonds>
9

> <r_i_docking_score>
-9.55754

> <r_i_glide_ligand_efficiency>
-0.281104

> <r_i_glide_ligand_efficiency_sa>
-0.910668

> <r_i_glide_ligand_efficiency_ln>
-2.11153

> <r_i_glide_gscore>
-9.55754

> <r_i_glide_lipo>
-3.79284

> <r_i_glide_hbond>
-0.96966

> <r_i_glide_metal>
-0

> <r_i_glide_rewards>
-0.892659

> <r_i_glide_evdw>
-54.0399

> <r_i_glide_ecoul>
-11.916

> <r_i_glide_erotb>
0.75941

> <r_i_glide_esite>
-0.172394

> <r_i_glide_emodel>
-98.2048

> <r_i_glide_energy>
-65.9559

> <r_i_glide_einternal>
11.2194

> <i_i_glide_confnum>
208

> <i_i_glide_posenum>
307

> <r_i_glide_eff_state_penalty>
0

$$$$
83
                    3D
 Structure written by MMmdl.
 56 59  0  0  1  0            999 V2000
  -23.4981   14.9151  -30.8094 C   0  0  0  0  0  0
  -23.1351   16.2574  -30.7212 C   0  0  0  0  0  0
  -22.6877   13.9225  -30.2598 C   0  0  0  0  0  0
  -21.9493   16.6165  -30.0855 C   0  0  0  0  0  0
  -21.5166   14.2852  -29.5952 C   0  0  0  0  0  0
  -21.1304   15.6286  -29.5309 C   0  0  0  0  0  0
  -22.8105   15.7130  -21.6821 C   0  0  0  0  0  0
  -19.4925   21.6468  -25.6599 C   0  0  0  0  0  0
  -22.5860   14.5951  -19.7206 C   0  0  0  0  0  0
  -21.9407   14.9246  -22.3700 C   0  0  0  0  0  0
  -18.4345   21.2926  -26.4389 C   0  0  0  0  0  0
  -21.2490   13.8792  -21.6015 C   0  0  0  0  0  0
  -17.2049   22.0696  -26.2822 C   0  0  0  0  0  0
  -18.4384   23.4288  -24.7196 C   0  0  0  0  0  0
  -21.8001   15.0909  -23.8199 C   0  0  0  0  0  0
  -18.4861   20.2236  -27.4308 C   0  0  0  0  0  0
  -20.9903   14.4152  -24.6658 C   0  0  0  0  0  0
  -19.2483   19.1145  -27.3172 C   0  0  0  0  0  0
  -21.0267   14.6578  -26.0857 C   0  0  0  0  0  0
  -19.3424   18.1464  -28.3798 C   0  0  0  0  0  0
  -20.4452   13.4047  -28.9943 C   0  0  0  0  0  0
  -19.7741   15.7424  -28.8516 C   0  0  2  0  0  0
  -19.5874   14.3674  -28.1616 C   0  0  1  0  0  0
  -18.4124   24.6639  -23.8559 C   0  0  0  0  0  0
  -23.1450   15.5500  -20.3697 N   0  0  0  0  0  0
  -19.4993   22.7080  -24.8023 N   0  0  0  0  0  0
  -21.6436   13.8088  -20.3119 N   0  0  0  0  0  0
  -17.3243   23.1210  -25.4426 N   0  0  0  0  0  0
  -19.6108   16.9022  -27.9621 N   0  0  0  0  0  0
  -19.9071   14.2750  -26.7222 N   0  0  0  0  0  0
  -20.4067   13.0807  -22.0029 O   0  0  0  0  0  0
  -16.1215   21.8219  -26.8051 O   0  0  0  0  0  0
  -21.9908   15.1762  -26.6467 O   0  0  0  0  0  0
  -19.2107   18.4382  -29.5675 O   0  0  0  0  0  0
  -24.4077   14.6493  -31.3243 H   0  0  0  0  0  0
  -23.7665   17.0180  -31.1567 H   0  0  0  0  0  0
  -22.9728   12.8850  -30.3509 H   0  0  0  0  0  0
  -21.6673   17.6573  -30.0488 H   0  0  0  0  0  0
  -23.3541   16.4895  -22.2016 H   0  0  0  0  0  0
  -20.4285   21.1125  -25.7437 H   0  0  0  0  0  0
  -22.8268   14.3967  -18.6797 H   0  0  0  0  0  0
  -22.4411   15.8427  -24.2667 H   0  0  0  0  0  0
  -17.8949   20.3520  -28.3316 H   0  0  0  0  0  0
  -20.2893   13.6674  -24.3305 H   0  0  0  0  0  0
  -19.8272   18.9112  -26.4273 H   0  0  0  0  0  0
  -19.8531   12.9814  -29.8072 H   0  0  0  0  0  0
  -20.8213   12.5588  -28.4195 H   0  0  0  0  0  0
  -19.0341   15.7937  -29.6551 H   0  0  0  0  0  0
  -18.5442   14.0589  -28.2568 H   0  0  0  0  0  0
  -18.9825   24.5088  -22.9387 H   0  0  0  0  0  0
  -17.3947   24.9247  -23.5591 H   0  0  0  0  0  0
  -18.8452   25.5127  -24.3835 H   0  0  0  0  0  0
  -21.2110   13.0544  -19.8033 H   0  0  0  0  0  0
  -16.4829   23.6549  -25.3014 H   0  0  0  0  0  0
  -19.7763   16.7385  -26.9810 H   0  0  0  0  0  0
  -19.1919   13.8399  -26.1569 H   0  0  0  0  0  0
  1  2  1  0  0  0
  1  3  2  0  0  0
  1 35  1  0  0  0
  2  4  2  0  0  0
  2 36  1  0  0  0
  3  5  1  0  0  0
  3 37  1  0  0  0
  4  6  1  0  0  0
  4 38  1  0  0  0
  5  6  2  0  0  0
  5 21  1  0  0  0
  6 22  1  0  0  0
  7 10  2  0  0  0
  7 25  1  0  0  0
  7 39  1  0  0  0
  8 11  2  0  0  0
  8 26  1  0  0  0
  8 40  1  0  0  0
  9 25  2  0  0  0
  9 27  1  0  0  0
  9 41  1  0  0  0
 10 12  1  0  0  0
 10 15  1  0  0  0
 11 13  1  0  0  0
 11 16  1  0  0  0
 12 27  1  0  0  0
 12 31  2  0  0  0
 13 28  1  0  0  0
 13 32  2  0  0  0
 14 24  1  0  0  0
 14 26  2  0  0  0
 14 28  1  0  0  0
 15 17  2  0  0  0
 15 42  1  0  0  0
 16 18  2  0  0  0
 16 43  1  0  0  0
 17 19  1  0  0  0
 17 44  1  0  0  0
 18 20  1  0  0  0
 18 45  1  0  0  0
 19 30  1  0  0  0
 19 33  2  0  0  0
 20 29  1  0  0  0
 20 34  2  0  0  0
 21 23  1  0  0  0
 21 46  1  0  0  0
 21 47  1  0  0  0
 22 23  1  0  0  0
 22 29  1  0  0  0
 22 48  1  0  0  0
 23 30  1  0  0  0
 23 49  1  0  0  0
 24 50  1  0  0  0
 24 51  1  0  0  0
 24 52  1  0  0  0
 27 53  1  0  0  0
 28 54  1  0  0  0
 29 55  1  0  0  0
 30 56  1  0  0  0
M  END
> <s_i_glide_gridfile>
Cov2_glide-grid_1

> <i_i_glide_lignum>
76

> <i_i_glide_rotatable_bonds>
8

> <r_i_docking_score>
-9.52818

> <r_i_glide_ligand_efficiency>
-0.280241

> <r_i_glide_ligand_efficiency_sa>
-0.907871

> <r_i_glide_ligand_efficiency_ln>
-2.10504

> <r_i_glide_gscore>
-9.52818

> <r_i_glide_lipo>
-3.80857

> <r_i_glide_hbond>
-0.805611

> <r_i_glide_metal>
-0

> <r_i_glide_rewards>
-1.06538

> <r_i_glide_evdw>
-56.1018

> <r_i_glide_ecoul>
-11.0206

> <r_i_glide_erotb>
0.669815

> <r_i_glide_esite>
-0.060254

> <r_i_glide_emodel>
-100.477

> <r_i_glide_energy>
-67.1224

> <r_i_glide_einternal>
7.01793

> <i_i_glide_confnum>
60

> <i_i_glide_posenum>
64

> <r_i_glide_eff_state_penalty>
0

$$$$
94
                    3D
 Structure written by MMmdl.
 53 56  0  0  1  0            999 V2000
  -23.4926   14.9595  -30.8022 C   0  0  0  0  0  0
  -23.1343   16.3013  -30.6947 C   0  0  0  0  0  0
  -22.6759   13.9624  -30.2693 C   0  0  0  0  0  0
  -21.9476   16.6551  -30.0562 C   0  0  0  0  0  0
  -21.5043   14.3180  -29.6005 C   0  0  0  0  0  0
  -21.1230   15.6633  -29.5171 C   0  0  0  0  0  0
  -19.5497   21.6020  -25.4763 C   0  0  0  0  0  0
  -22.8101   15.6629  -21.6929 C   0  0  0  0  0  0
  -18.4929   23.3141  -24.4108 C   0  0  0  0  0  0
  -22.5296   14.5922  -19.7134 C   0  0  0  0  0  0
  -18.5136   21.3314  -26.3162 C   0  0  0  0  0  0
  -21.9334   14.8781  -22.3768 C   0  0  0  0  0  0
  -17.3053   22.1483  -26.1646 C   0  0  0  0  0  0
  -21.2131   13.8606  -21.6007 C   0  0  0  0  0  0
  -18.5572   20.2878  -27.3407 C   0  0  0  0  0  0
  -21.8072   15.0269  -23.8291 C   0  0  0  0  0  0
  -19.2596   19.1364  -27.2327 C   0  0  0  0  0  0
  -20.9651   14.3866  -24.6697 C   0  0  0  0  0  0
  -19.3456   18.1828  -28.3137 C   0  0  0  0  0  0
  -21.0153   14.6235  -26.0907 C   0  0  0  0  0  0
  -20.4317   13.4269  -29.0124 C   0  0  0  0  0  0
  -19.7676   15.7771  -28.8339 C   0  0  2  0  0  0
  -19.5763   14.3864  -28.1701 C   0  0  1  0  0  0
  -19.5537   22.5974  -24.5432 N   0  0  0  0  0  0
  -23.1235   15.5182  -20.3737 N   0  0  0  0  0  0
  -17.4018   23.0980  -25.2032 N   0  0  0  0  0  0
  -21.5762   13.8188  -20.3010 N   0  0  0  0  0  0
  -19.6116   16.9268  -27.9239 N   0  0  0  0  0  0
  -19.8870   14.2739  -26.7306 N   0  0  0  0  0  0
  -16.2639   22.0073  -26.8011 O   0  0  0  0  0  0
  -20.3727   13.0599  -22.0018 O   0  0  0  0  0  0
  -19.2110   18.4969  -29.4953 O   0  0  0  0  0  0
  -21.9955   15.1146  -26.6489 O   0  0  0  0  0  0
  -24.4075   14.6972  -31.3125 H   0  0  0  0  0  0
  -23.7694   17.0663  -31.1172 H   0  0  0  0  0  0
  -22.9611   12.9264  -30.3730 H   0  0  0  0  0  0
  -21.6696   17.6969  -30.0045 H   0  0  0  0  0  0
  -20.4657   21.0326  -25.5472 H   0  0  0  0  0  0
  -23.3745   16.4214  -22.2191 H   0  0  0  0  0  0
  -18.4275   24.1031  -23.6655 H   0  0  0  0  0  0
  -22.7547   14.4085  -18.6654 H   0  0  0  0  0  0
  -18.0077   20.4693  -28.2593 H   0  0  0  0  0  0
  -22.4879   15.7379  -24.2837 H   0  0  0  0  0  0
  -19.7932   18.8824  -26.3280 H   0  0  0  0  0  0
  -20.2248   13.6780  -24.3281 H   0  0  0  0  0  0
  -19.8404   13.0116  -29.8300 H   0  0  0  0  0  0
  -20.8115   12.5779  -28.4438 H   0  0  0  0  0  0
  -19.0247   15.8490  -29.6333 H   0  0  0  0  0  0
  -18.5320   14.0864  -28.2767 H   0  0  0  0  0  0
  -16.5657   23.6354  -25.0363 H   0  0  0  0  0  0
  -21.1290   13.0787  -19.7858 H   0  0  0  0  0  0
  -19.7725   16.7430  -26.9447 H   0  0  0  0  0  0
  -19.1585   13.8575  -26.1683 H   0  0  0  0  0  0
  1  2  1  0  0  0
  1  3  2  0  0  0
  1 34  1  0  0  0
  2  4  2  0  0  0
  2 35  1  0  0  0
  3  5  1  0  0  0
  3 36  1  0  0  0
  4  6  1  0  0  0
  4 37  1  0  0  0
  5  6  2  0  0  0
  5 21  1  0  0  0
  6 22  1  0  0  0
  7 11  2  0  0  0
  7 24  1  0  0  0
  7 38  1  0  0  0
  8 12  2  0  0  0
  8 25  1  0  0  0
  8 39  1  0  0  0
  9 24  2  0  0  0
  9 26  1  0  0  0
  9 40  1  0  0  0
 10 25  2  0  0  0
 10 27  1  0  0  0
 10 41  1  0  0  0
 11 13  1  0  0  0
 11 15  1  0  0  0
 12 14  1  0  0  0
 12 16  1  0  0  0
 13 26  1  0  0  0
 13 30  2  0  0  0
 14 27  1  0  0  0
 14 31  2  0  0  0
 15 17  2  0  0  0
 15 42  1  0  0  0
 16 18  2  0  0  0
 16 43  1  0  0  0
 17 19  1  0  0  0
 17 44  1  0  0  0
 18 20  1  0  0  0
 18 45  1  0  0  0
 19 28  1  0  0  0
 19 32  2  0  0  0
 20 29  1  0  0  0
 20 33  2  0  0  0
 21 23  1  0  0  0
 21 46  1  0  0  0
 21 47  1  0  0  0
 22 23  1  0  0  0
 22 28  1  0  0  0
 22 48  1  0  0  0
 23 29  1  0  0  0
 23 49  1  0  0  0
 26 50  1  0  0  0
 27 51  1  0  0  0
 28 52  1  0  0  0
 29 53  1  0  0  0
M  END
> <s_i_glide_gridfile>
Cov2_glide-grid_1

> <i_i_glide_lignum>
82

> <i_i_glide_rotatable_bonds>
8

> <r_i_docking_score>
-9.41595

> <r_i_glide_ligand_efficiency>
-0.285332

> <r_i_glide_ligand_efficiency_sa>
-0.915212

> <r_i_glide_ligand_efficiency_ln>
-2.09406

> <r_i_glide_gscore>
-9.41595

> <r_i_glide_lipo>
-3.78382

> <r_i_glide_hbond>
-0.797128

> <r_i_glide_metal>
-0

> <r_i_glide_rewards>
-1.1643

> <r_i_glide_evdw>
-54.0375

> <r_i_glide_ecoul>
-9.66813

> <r_i_glide_erotb>
0.607504

> <r_i_glide_esite>
-0.126114

> <r_i_glide_emodel>
-94.9382

> <r_i_glide_energy>
-63.7056

> <r_i_glide_einternal>
7.95139

> <i_i_glide_confnum>
10

> <i_i_glide_posenum>
93

> <r_i_glide_eff_state_penalty>
0

$$$$
15
                    3D
 Structure written by MMmdl.
 53 55  0  0  1  0            999 V2000
  -21.8903   12.6235  -29.5975 C   0  0  0  0  0  0
  -22.8190   13.3698  -28.8826 C   0  0  0  0  0  0
  -20.5536   13.0026  -29.6046 C   0  0  0  0  0  0
  -22.4173   14.5170  -28.2092 C   0  0  0  0  0  0
  -20.1381   14.1350  -28.9235 C   0  0  0  0  0  0
  -21.0747   14.9082  -28.2321 C   0  0  0  0  0  0
  -19.3721   22.6635  -25.4979 C   0  0  0  0  0  0
  -18.3651   22.0928  -26.2096 C   0  0  0  0  0  0
  -17.0253   22.6294  -26.0017 C   0  0  0  0  0  0
  -22.1155   15.3705  -21.0295 C   0  0  0  0  0  0
  -18.0462   24.1975  -24.4759 C   0  0  0  0  0  0
  -20.6517   14.0334  -22.1109 C   0  0  0  0  0  0
  -18.5574   20.9842  -27.1344 C   0  0  0  0  0  0
  -19.7329   20.7171  -27.7386 C   0  0  0  0  0  0
  -19.9541   19.5632  -28.5627 C   0  0  0  0  0  0
  -20.6780   15.6549  -25.1360 C   0  0  0  0  0  0
  -21.3771   16.2307  -22.0165 C   0  0  0  0  0  0
  -19.7760   15.5265  -23.8929 C   0  0  0  0  0  0
  -19.7646   17.0759  -28.5176 C   0  0  0  0  0  0
  -20.6576   16.2222  -27.5802 C   0  0  2  0  0  0
  -19.2151   23.7135  -24.6437 N   0  0  0  0  0  0
  -16.9847   23.6757  -25.1488 N   0  0  0  0  0  0
  -21.6293   14.1357  -21.1938 N   0  0  0  0  0  0
  -20.5513   15.2520  -22.6720 N   0  0  0  0  0  0
  -17.8393   25.2665  -23.6009 N   0  0  0  0  0  0
  -19.5459   18.4200  -27.9909 N   0  0  0  0  0  0
  -20.0426   16.0274  -26.2590 N   0  0  0  0  0  0
  -16.0026   22.2047  -26.5301 O   0  0  0  0  0  0
  -22.9984   15.7363  -20.2585 O   0  0  0  0  0  0
  -20.0106   13.0211  -22.3785 O   0  0  0  0  0  0
  -20.5346   19.6291  -29.6441 O   0  0  0  0  0  0
  -21.8925   15.4419  -25.0872 O   0  0  0  0  0  0
  -22.2015   11.7380  -30.1323 H   0  0  0  0  0  0
  -23.8501   13.0657  -28.8578 H   0  0  0  0  0  0
  -19.8464   12.4158  -30.1661 H   0  0  0  0  0  0
  -23.1516   15.1058  -27.6776 H   0  0  0  0  0  0
  -19.0973   14.4124  -28.9604 H   0  0  0  0  0  0
  -20.3801   22.2888  -25.5892 H   0  0  0  0  0  0
  -17.7130   20.3315  -27.3291 H   0  0  0  0  0  0
  -20.5975   21.3519  -27.6285 H   0  0  0  0  0  0
  -20.7701   17.0121  -21.5566 H   0  0  0  0  0  0
  -22.0662   16.6924  -22.7249 H   0  0  0  0  0  0
  -19.0499   14.7320  -24.0751 H   0  0  0  0  0  0
  -19.2103   16.4479  -23.7578 H   0  0  0  0  0  0
  -20.2125   17.1075  -29.5158 H   0  0  0  0  0  0
  -18.7890   16.6121  -28.6552 H   0  0  0  0  0  0
  -21.5658   16.8146  -27.4318 H   0  0  0  0  0  0
  -16.0689   24.0470  -24.9509 H   0  0  0  0  0  0
  -21.9543   13.3430  -20.6627 H   0  0  0  0  0  0
  -18.5764   25.4498  -22.9400 H   0  0  0  0  0  0
  -16.9286   25.3050  -23.1583 H   0  0  0  0  0  0
  -19.0734   18.4843  -27.1034 H   0  0  0  0  0  0
  -19.0405   16.1279  -26.2227 H   0  0  0  0  0  0
  1  2  1  0  0  0
  1  3  2  0  0  0
  1 33  1  0  0  0
  2  4  2  0  0  0
  2 34  1  0  0  0
  3  5  1  0  0  0
  3 35  1  0  0  0
  4  6  1  0  0  0
  4 36  1  0  0  0
  5  6  2  0  0  0
  5 37  1  0  0  0
  6 20  1  0  0  0
  7  8  2  0  0  0
  7 21  1  0  0  0
  7 38  1  0  0  0
  8  9  1  0  0  0
  8 13  1  0  0  0
  9 22  1  0  0  0
  9 28  2  0  0  0
 10 17  1  0  0  0
 10 23  1  0  0  0
 10 29  2  0  0  0
 11 21  2  0  0  0
 11 22  1  0  0  0
 11 25  1  0  0  0
 12 23  1  0  0  0
 12 24  1  0  0  0
 12 30  2  0  0  0
 13 14  2  0  0  0
 13 39  1  0  0  0
 14 15  1  0  0  0
 14 40  1  0  0  0
 15 26  1  0  0  0
 15 31  2  0  0  0
 16 18  1  0  0  0
 16 27  1  0  0  0
 16 32  2  0  0  0
 17 24  1  0  0  0
 17 41  1  0  0  0
 17 42  1  0  0  0
 18 24  1  0  0  0
 18 43  1  0  0  0
 18 44  1  0  0  0
 19 20  1  0  0  0
 19 26  1  0  0  0
 19 45  1  0  0  0
 19 46  1  0  0  0
 20 27  1  0  0  0
 20 47  1  0  0  0
 22 48  1  0  0  0
 23 49  1  0  0  0
 25 50  1  0  0  0
 25 51  1  0  0  0
 26 52  1  0  0  0
 27 53  1  0  0  0
M  END
> <s_i_glide_gridfile>
Cov2_glide-grid_1

> <i_i_glide_lignum>
51

> <i_i_glide_rotatable_bonds>
10

> <r_i_docking_score>
-9.40152

> <r_i_glide_ligand_efficiency>
-0.293797

> <r_i_glide_ligand_efficiency_sa>
-0.932749

> <r_i_glide_ligand_efficiency_ln>
-2.10526

> <r_i_glide_gscore>
-9.40152

> <r_i_glide_lipo>
-3.0563

> <r_i_glide_hbond>
-0.814195

> <r_i_glide_metal>
-0

> <r_i_glide_rewards>
-1.5651

> <r_i_glide_evdw>
-51.6524

> <r_i_glide_ecoul>
-12.9916

> <r_i_glide_erotb>
0.826877

> <r_i_glide_esite>
-0.261437

> <r_i_glide_emodel>
-97.811

> <r_i_glide_energy>
-64.6441

> <r_i_glide_einternal>
7.22215

> <i_i_glide_confnum>
157

> <i_i_glide_posenum>
282

> <r_i_glide_eff_state_penalty>
0

$$$$
17
                    3D
 Structure written by MMmdl.
 53 56  0  0  1  0            999 V2000
  -26.0141   17.3683  -32.4016 C   0  0  0  0  0  0
  -25.3976   18.6155  -32.3403 C   0  0  0  0  0  0
  -25.3234   16.2224  -32.0032 C   0  0  0  0  0  0
  -24.0897   18.7179  -31.8701 C   0  0  0  0  0  0
  -24.0235   16.3219  -31.5098 C   0  0  0  0  0  0
  -23.4058   17.5703  -31.4544 C   0  0  0  0  0  0
  -17.7082   20.6340  -26.4018 C   0  0  0  0  0  0
  -19.8957   13.4927  -23.7823 C   0  0  0  0  0  0
  -18.8793   20.1342  -26.8306 C   0  0  0  0  0  0
  -20.6243   14.2069  -21.7483 C   0  0  0  0  0  0
  -20.7235   14.3013  -24.5002 C   0  0  0  0  0  0
  -17.0966   21.7379  -27.1060 C   0  0  0  0  0  0
  -21.6040   15.1880  -23.7251 C   0  0  0  0  0  0
  -19.0492   21.6894  -28.6262 C   0  0  0  0  0  0
  -20.6898   14.2619  -25.9696 C   0  0  0  0  0  0
  -21.4530   14.9646  -26.8384 C   0  0  0  0  0  0
  -21.2973   14.8430  -28.2707 C   0  0  0  0  0  0
  -20.6931   19.0220  -29.4698 C   0  0  0  0  0  0
  -23.0612   15.2294  -31.1002 C   0  0  0  0  0  0
  -22.0104   17.4519  -30.8914 C   0  0  2  0  0  0
  -21.9031   15.9738  -30.4171 C   0  0  1  0  0  0
  -20.8503   20.0467  -28.3356 C   0  0  0  0  0  0
  -19.8602   13.4216  -22.4162 N   0  0  0  0  0  0
  -21.4670   15.0677  -22.3853 N   0  0  0  0  0  0
  -17.8476   22.1636  -28.1585 N   0  0  0  0  0  0
  -19.5632   20.6198  -27.9136 N   0  0  0  0  0  0
  -21.9602   15.7903  -28.9580 N   0  0  0  0  0  0
  -21.8418   18.4525  -29.8367 N   0  0  0  0  0  0
  -16.0106   22.2211  -26.8023 O   0  0  0  0  0  0
  -22.4331   15.9875  -24.1469 O   0  0  0  0  0  0
  -19.5885   22.2210  -29.5981 O   0  0  0  0  0  0
  -20.6052   13.9756  -28.8100 O   0  0  0  0  0  0
  -19.6106   18.7478  -29.9852 O   0  0  0  0  0  0
  -27.0225   17.2887  -32.7791 H   0  0  0  0  0  0
  -25.9309   19.4972  -32.6653 H   0  0  0  0  0  0
  -25.8139   15.2656  -32.0813 H   0  0  0  0  0  0
  -23.6163   19.6868  -31.8287 H   0  0  0  0  0  0
  -17.2106   20.2246  -25.5468 H   0  0  0  0  0  0
  -19.2106   12.8341  -24.2990 H   0  0  0  0  0  0
  -19.3807   19.3046  -26.3519 H   0  0  0  0  0  0
  -20.6274   14.2068  -20.6609 H   0  0  0  0  0  0
  -19.9587   13.5865  -26.4034 H   0  0  0  0  0  0
  -22.2053   15.6609  -26.5048 H   0  0  0  0  0  0
  -22.6937   14.7447  -32.0017 H   0  0  0  0  0  0
  -23.4987   14.4417  -30.4846 H   0  0  0  0  0  0
  -21.2996   17.6002  -31.7085 H   0  0  0  0  0  0
  -20.9646   15.5648  -30.8014 H   0  0  0  0  0  0
  -21.5333   20.8336  -28.6563 H   0  0  0  0  0  0
  -21.3395   19.5721  -27.4856 H   0  0  0  0  0  0
  -22.0543   15.6883  -21.8551 H   0  0  0  0  0  0
  -17.4579   22.9417  -28.6642 H   0  0  0  0  0  0
  -22.5632   16.4195  -28.4518 H   0  0  0  0  0  0
  -22.6915   18.7515  -29.3819 H   0  0  0  0  0  0
  1  2  1  0  0  0
  1  3  2  0  0  0
  1 34  1  0  0  0
  2  4  2  0  0  0
  2 35  1  0  0  0
  3  5  1  0  0  0
  3 36  1  0  0  0
  4  6  1  0  0  0
  4 37  1  0  0  0
  5  6  2  0  0  0
  5 19  1  0  0  0
  6 20  1  0  0  0
  7  9  2  0  0  0
  7 12  1  0  0  0
  7 38  1  0  0  0
  8 11  2  0  0  0
  8 23  1  0  0  0
  8 39  1  0  0  0
  9 26  1  0  0  0
  9 40  1  0  0  0
 10 23  2  0  0  0
 10 24  1  0  0  0
 10 41  1  0  0  0
 11 13  1  0  0  0
 11 15  1  0  0  0
 12 25  1  0  0  0
 12 29  2  0  0  0
 13 24  1  0  0  0
 13 30  2  0  0  0
 14 25  1  0  0  0
 14 26  1  0  0  0
 14 31  2  0  0  0
 15 16  2  0  0  0
 15 42  1  0  0  0
 16 17  1  0  0  0
 16 43  1  0  0  0
 17 27  1  0  0  0
 17 32  2  0  0  0
 18 22  1  0  0  0
 18 28  1  0  0  0
 18 33  2  0  0  0
 19 21  1  0  0  0
 19 44  1  0  0  0
 19 45  1  0  0  0
 20 21  1  0  0  0
 20 28  1  0  0  0
 20 46  1  0  0  0
 21 27  1  0  0  0
 21 47  1  0  0  0
 22 26  1  0  0  0
 22 48  1  0  0  0
 22 49  1  0  0  0
 24 50  1  0  0  0
 25 51  1  0  0  0
 27 52  1  0  0  0
 28 53  1  0  0  0
M  END
> <s_i_glide_gridfile>
Cov2_glide-grid_1

> <i_i_glide_lignum>
7

> <i_i_glide_rotatable_bonds>
8

> <r_i_docking_score>
-9.36213

> <r_i_glide_ligand_efficiency>
-0.283701

> <r_i_glide_ligand_efficiency_sa>
-0.90998

> <r_i_glide_ligand_efficiency_ln>
-2.08209

> <r_i_glide_gscore>
-9.36213

> <r_i_glide_lipo>
-3.36033

> <r_i_glide_hbond>
-1.19573

> <r_i_glide_metal>
-0

> <r_i_glide_rewards>
-1.26674

> <r_i_glide_evdw>
-50.2128

> <r_i_glide_ecoul>
-10.7942

> <r_i_glide_erotb>
0.597722

> <r_i_glide_esite>
-0.00728264

> <r_i_glide_emodel>
-91.4196

> <r_i_glide_energy>
-61.007

> <r_i_glide_einternal>
6.943

> <i_i_glide_confnum>
98

> <i_i_glide_posenum>
186

> <r_i_glide_eff_state_penalty>
0

$$$$
44
                    3D
 Structure written by MMmdl.
 52 54  0  0  1  0            999 V2000
  -21.9649   12.6353  -29.6001 C   0  0  0  0  0  0
  -22.8574   13.4207  -28.8836 C   0  0  0  0  0  0
  -20.6181   12.9715  -29.6308 C   0  0  0  0  0  0
  -22.4094   14.5555  -28.2156 C   0  0  0  0  0  0
  -20.1514   14.0924  -28.9567 C   0  0  0  0  0  0
  -21.0517   14.8934  -28.2457 C   0  0  0  0  0  0
  -22.4122   14.9235  -20.5662 C   0  0  0  0  0  0
  -21.5742   13.9213  -20.9054 C   0  0  0  0  0  0
  -19.3664   22.6951  -25.3991 C   0  0  0  0  0  0
  -18.0101   24.2191  -24.4019 C   0  0  0  0  0  0
  -18.3772   22.1243  -26.1422 C   0  0  0  0  0  0
  -22.5115   16.1555  -21.3198 C   0  0  0  0  0  0
  -20.6731   13.9933  -22.0355 C   0  0  0  0  0  0
  -17.0267   22.6554  -25.9732 C   0  0  0  0  0  0
  -18.5882   21.0046  -27.0580 C   0  0  0  0  0  0
  -19.8056   20.6260  -27.5106 C   0  0  0  0  0  0
  -20.0359   19.4766  -28.3409 C   0  0  0  0  0  0
  -20.6586   15.5149  -25.1439 C   0  0  0  0  0  0
  -19.8192   15.4823  -23.8496 C   0  0  0  0  0  0
  -19.6324   17.0217  -28.4642 C   0  0  0  0  0  0
  -20.5841   16.1843  -27.5695 C   0  0  2  0  0  0
  -19.1932   23.7423  -24.5434 N   0  0  0  0  0  0
  -16.9641   23.7051  -25.1209 N   0  0  0  0  0  0
  -21.5436   16.2788  -22.2646 N   0  0  0  0  0  0
  -20.6608   15.2179  -22.6623 N   0  0  0  0  0  0
  -19.4105   18.3626  -27.9247 N   0  0  0  0  0  0
  -20.0119   15.9665  -26.2328 N   0  0  0  0  0  0
  -23.4037   16.9851  -21.1754 O   0  0  0  0  0  0
  -20.0115   13.0214  -22.3887 O   0  0  0  0  0  0
  -16.0107   22.2205  -26.5123 O   0  0  0  0  0  0
  -20.8031   19.5156  -29.3005 O   0  0  0  0  0  0
  -21.8473   15.1934  -25.1521 O   0  0  0  0  0  0
  -22.3136   11.7606  -30.1293 H   0  0  0  0  0  0
  -23.9031   13.1609  -28.8526 H   0  0  0  0  0  0
  -19.9436   12.3573  -30.2018 H   0  0  0  0  0  0
  -23.1195   15.1671  -27.6761 H   0  0  0  0  0  0
  -19.0976   14.3352  -28.9960 H   0  0  0  0  0  0
  -23.0578   14.8172  -19.7066 H   0  0  0  0  0  0
  -21.5464   13.0224  -20.3074 H   0  0  0  0  0  0
  -20.3780   22.3200  -25.4530 H   0  0  0  0  0  0
  -17.7971   25.0361  -23.7192 H   0  0  0  0  0  0
  -17.7210   20.4387  -27.3809 H   0  0  0  0  0  0
  -20.7074   21.1648  -27.2671 H   0  0  0  0  0  0
  -19.0327   14.7376  -23.9775 H   0  0  0  0  0  0
  -19.3068   16.4347  -23.7200 H   0  0  0  0  0  0
  -20.0286   17.0701  -29.4834 H   0  0  0  0  0  0
  -18.6641   16.5345  -28.5521 H   0  0  0  0  0  0
  -21.4712   16.8091  -27.4339 H   0  0  0  0  0  0
  -16.0383   24.0642  -24.9377 H   0  0  0  0  0  0
  -21.5584   17.0268  -22.9424 H   0  0  0  0  0  0
  -18.7744   18.4417  -27.1482 H   0  0  0  0  0  0
  -19.0465   16.2393  -26.1235 H   0  0  0  0  0  0
  1  2  1  0  0  0
  1  3  2  0  0  0
  1 33  1  0  0  0
  2  4  2  0  0  0
  2 34  1  0  0  0
  3  5  1  0  0  0
  3 35  1  0  0  0
  4  6  1  0  0  0
  4 36  1  0  0  0
  5  6  2  0  0  0
  5 37  1  0  0  0
  6 21  1  0  0  0
  7  8  2  0  0  0
  7 12  1  0  0  0
  7 38  1  0  0  0
  8 13  1  0  0  0
  8 39  1  0  0  0
  9 11  2  0  0  0
  9 22  1  0  0  0
  9 40  1  0  0  0
 10 22  2  0  0  0
 10 23  1  0  0  0
 10 41  1  0  0  0
 11 14  1  0  0  0
 11 15  1  0  0  0
 12 24  1  0  0  0
 12 28  2  0  0  0
 13 25  1  0  0  0
 13 29  2  0  0  0
 14 23  1  0  0  0
 14 30  2  0  0  0
 15 16  2  0  0  0
 15 42  1  0  0  0
 16 17  1  0  0  0
 16 43  1  0  0  0
 17 26  1  0  0  0
 17 31  2  0  0  0
 18 19  1  0  0  0
 18 27  1  0  0  0
 18 32  2  0  0  0
 19 25  1  0  0  0
 19 44  1  0  0  0
 19 45  1  0  0  0
 20 21  1  0  0  0
 20 26  1  0  0  0
 20 46  1  0  0  0
 20 47  1  0  0  0
 21 27  1  0  0  0
 21 48  1  0  0  0
 23 49  1  0  0  0
 24 25  1  0  0  0
 24 50  1  0  0  0
 26 51  1  0  0  0
 27 52  1  0  0  0
M  END
> <s_i_glide_gridfile>
Cov2_glide-grid_1

> <i_i_glide_lignum>
22

> <i_i_glide_rotatable_bonds>
10

> <r_i_docking_score>
-9.31801

> <r_i_glide_ligand_efficiency>
-0.291188

> <r_i_glide_ligand_efficiency_sa>
-0.924464

> <r_i_glide_ligand_efficiency_ln>
-2.08656

> <r_i_glide_gscore>
-9.31801

> <r_i_glide_lipo>
-3.75533

> <r_i_glide_hbond>
-0.813801

> <r_i_glide_metal>
-0

> <r_i_glide_rewards>
-0.98101

> <r_i_glide_evdw>
-51.225

> <r_i_glide_ecoul>
-11.7554

> <r_i_glide_erotb>
0.732577

> <r_i_glide_esite>
-0.175891

> <r_i_glide_emodel>
-96.2336

> <r_i_glide_energy>
-62.9803

> <r_i_glide_einternal>
5.93125

> <i_i_glide_confnum>
138

> <i_i_glide_posenum>
58

> <r_i_glide_eff_state_penalty>
0

$$$$
71
                    3D
 Structure written by MMmdl.
 53 56  0  0  1  0            999 V2000
  -23.2110   14.8118  -30.5502 C   0  0  0  0  0  0
  -22.6684   16.0718  -30.7957 C   0  0  0  0  0  0
  -22.7448   14.0412  -29.4849 C   0  0  0  0  0  0
  -21.6350   16.5552  -29.9931 C   0  0  0  0  0  0
  -21.7152   14.5270  -28.6777 C   0  0  0  0  0  0
  -21.1405   15.7762  -28.9429 C   0  0  0  0  0  0
  -22.8958   14.7811  -20.3404 C   0  0  0  0  0  0
  -21.9252   13.8528  -20.4783 C   0  0  0  0  0  0
  -19.3826   22.1883  -25.5273 C   0  0  0  0  0  0
  -18.1792   23.8209  -24.4963 C   0  0  0  0  0  0
  -18.3449   21.7306  -26.2791 C   0  0  0  0  0  0
  -23.0085   15.9353  -21.2011 C   0  0  0  0  0  0
  -20.8791   13.9328  -21.4776 C   0  0  0  0  0  0
  -17.0567   22.4079  -26.1031 C   0  0  0  0  0  0
  -18.4501   20.5970  -27.2035 C   0  0  0  0  0  0
  -19.3434   19.5900  -27.0651 C   0  0  0  0  0  0
  -19.4504   18.4953  -27.9994 C   0  0  0  0  0  0
  -19.9895   14.6217  -24.5183 C   0  0  0  0  0  0
  -21.0017   13.8209  -27.5494 C   0  0  0  0  0  0
  -19.9492   16.0155  -28.0281 C   0  0  2  0  0  0
  -20.0143   14.8574  -26.9914 C   0  0  1  0  0  0
  -19.8927   15.4238  -23.2140 C   0  0  0  0  0  0
  -19.3125   23.2381  -24.6599 N   0  0  0  0  0  0
  -17.0828   23.4194  -25.2018 N   0  0  0  0  0  0
  -22.0073   16.0205  -22.1121 N   0  0  0  0  0  0
  -20.9559   15.0584  -22.2666 N   0  0  0  0  0  0
  -19.8354   17.3534  -27.4114 N   0  0  0  0  0  0
  -20.3568   15.2885  -25.6245 N   0  0  0  0  0  0
  -23.9291   16.7451  -21.1621 O   0  0  0  0  0  0
  -20.0110   13.0666  -21.5853 O   0  0  0  0  0  0
  -16.0108   22.1095  -26.6770 O   0  0  0  0  0  0
  -19.2107   18.5954  -29.1997 O   0  0  0  0  0  0
  -19.6108   13.4541  -24.5376 O   0  0  0  0  0  0
  -23.9959   14.4354  -31.1903 H   0  0  0  0  0  0
  -23.0304   16.6625  -31.6255 H   0  0  0  0  0  0
  -23.1695   13.0642  -29.3078 H   0  0  0  0  0  0
  -21.2006   17.5135  -30.2321 H   0  0  0  0  0  0
  -23.6364   14.6701  -19.5622 H   0  0  0  0  0  0
  -21.8946   13.0208  -19.7929 H   0  0  0  0  0  0
  -20.3552   21.7255  -25.6088 H   0  0  0  0  0  0
  -18.0536   24.6398  -23.7933 H   0  0  0  0  0  0
  -17.7734   20.5695  -28.0506 H   0  0  0  0  0  0
  -20.0181   19.5550  -26.2213 H   0  0  0  0  0  0
  -20.4411   12.9818  -27.9633 H   0  0  0  0  0  0
  -21.6731   13.4237  -26.7868 H   0  0  0  0  0  0
  -19.0665   15.8451  -28.6506 H   0  0  0  0  0  0
  -19.0268   14.3861  -26.9679 H   0  0  0  0  0  0
  -18.9053   15.2430  -22.7833 H   0  0  0  0  0  0
  -19.8990   16.4960  -23.4216 H   0  0  0  0  0  0
  -16.1991   23.8679  -25.0172 H   0  0  0  0  0  0
  -21.9412   16.7751  -22.7770 H   0  0  0  0  0  0
  -20.0082   17.3941  -26.4211 H   0  0  0  0  0  0
  -20.9147   16.1222  -25.5342 H   0  0  0  0  0  0
  1  2  1  0  0  0
  1  3  2  0  0  0
  1 34  1  0  0  0
  2  4  2  0  0  0
  2 35  1  0  0  0
  3  5  1  0  0  0
  3 36  1  0  0  0
  4  6  1  0  0  0
  4 37  1  0  0  0
  5  6  2  0  0  0
  5 19  1  0  0  0
  6 20  1  0  0  0
  7  8  2  0  0  0
  7 12  1  0  0  0
  7 38  1  0  0  0
  8 13  1  0  0  0
  8 39  1  0  0  0
  9 11  2  0  0  0
  9 23  1  0  0  0
  9 40  1  0  0  0
 10 23  2  0  0  0
 10 24  1  0  0  0
 10 41  1  0  0  0
 11 14  1  0  0  0
 11 15  1  0  0  0
 12 25  1  0  0  0
 12 29  2  0  0  0
 13 26  1  0  0  0
 13 30  2  0  0  0
 14 24  1  0  0  0
 14 31  2  0  0  0
 15 16  2  0  0  0
 15 42  1  0  0  0
 16 17  1  0  0  0
 16 43  1  0  0  0
 17 27  1  0  0  0
 17 32  2  0  0  0
 18 22  1  0  0  0
 18 28  1  0  0  0
 18 33  2  0  0  0
 19 21  1  0  0  0
 19 44  1  0  0  0
 19 45  1  0  0  0
 20 21  1  0  0  0
 20 27  1  0  0  0
 20 46  1  0  0  0
 21 28  1  0  0  0
 21 47  1  0  0  0
 22 26  1  0  0  0
 22 48  1  0  0  0
 22 49  1  0  0  0
 24 50  1  0  0  0
 25 26  1  0  0  0
 25 51  1  0  0  0
 27 52  1  0  0  0
 28 53  1  0  0  0
M  END
> <s_i_glide_gridfile>
Cov2_glide-grid_1

> <i_i_glide_lignum>
59

> <i_i_glide_rotatable_bonds>
8

> <r_i_docking_score>
-9.26915

> <r_i_glide_ligand_efficiency>
-0.280883

> <r_i_glide_ligand_efficiency_sa>
-0.900942

> <r_i_glide_ligand_efficiency_ln>
-2.06141

> <r_i_glide_gscore>
-9.26915

> <r_i_glide_lipo>
-3.57233

> <r_i_glide_hbond>
-0.797902

> <r_i_glide_metal>
-0

> <r_i_glide_rewards>
-1.15175

> <r_i_glide_evdw>
-54.7807

> <r_i_glide_ecoul>
-9.7908

> <r_i_glide_erotb>
0.597722

> <r_i_glide_esite>
-0.137227

> <r_i_glide_emodel>
-94.2026

> <r_i_glide_energy>
-64.5715

> <r_i_glide_einternal>
13.9146

> <i_i_glide_confnum>
150

> <i_i_glide_posenum>
250

> <r_i_glide_eff_state_penalty>
0

$$$$
28
                    3D
 Structure written by MMmdl.
 56 59  0  0  1  0            999 V2000
  -23.3033   14.5286  -30.8013 C   0  0  0  0  0  0
  -22.8679   15.8471  -30.9143 C   0  0  0  0  0  0
  -22.6446   13.6320  -29.9607 C   0  0  0  0  0  0
  -21.7615   16.2772  -30.1887 C   0  0  0  0  0  0
  -21.5586   14.0734  -29.2052 C   0  0  0  0  0  0
  -21.0946   15.3879  -29.3419 C   0  0  0  0  0  0
  -18.4335   13.8344  -21.9960 C   0  0  0  0  0  0
  -19.7161   13.5114  -21.7031 C   0  0  0  0  0  0
  -18.1765   14.9144  -22.9338 C   0  0  0  0  0  0
  -19.4543   21.6203  -25.7126 C   0  0  0  0  0  0
  -19.2492   15.4204  -23.5708 C   0  0  0  0  0  0
  -18.4439   21.2656  -26.5527 C   0  0  0  0  0  0
  -20.8560   14.2330  -22.2702 C   0  0  0  0  0  0
  -17.2102   22.0477  -26.4689 C   0  0  0  0  0  0
  -18.3357   23.3814  -24.8017 C   0  0  0  0  0  0
  -18.5248   20.1690  -27.5163 C   0  0  0  0  0  0
  -19.3343   19.0977  -27.3828 C   0  0  0  0  0  0
  -19.4073   18.0501  -28.3690 C   0  0  0  0  0  0
  -21.4931   15.1335  -25.7431 C   0  0  0  0  0  0
  -20.6632   13.2836  -28.2784 C   0  0  0  0  0  0
  -19.8341   15.5783  -28.5135 C   0  0  2  0  0  0
  -19.8474   14.3606  -27.5515 C   0  0  1  0  0  0
  -18.2399   24.5873  -23.9014 C   0  0  0  0  0  0
  -21.6822   15.4414  -24.2350 C   0  0  0  0  0  0
  -19.4069   22.6722  -24.8438 N   0  0  0  0  0  0
  -17.2696   23.0808  -25.5997 N   0  0  0  0  0  0
  -20.5499   14.9910  -23.3874 N   0  0  0  0  0  0
  -19.7095   16.8670  -27.8199 N   0  0  0  0  0  0
  -20.3299   14.6018  -26.1764 N   0  0  0  0  0  0
  -21.9674   14.1825  -21.7407 O   0  0  0  0  0  0
  -16.1745   21.8211  -27.0849 O   0  0  0  0  0  0
  -19.2105   18.2214  -29.5739 O   0  0  0  0  0  0
  -22.4100   15.4284  -26.5039 O   0  0  0  0  0  0
  -24.1681   14.2135  -31.3576 H   0  0  0  0  0  0
  -23.3847   16.5320  -31.5706 H   0  0  0  0  0  0
  -22.9890   12.6103  -29.8853 H   0  0  0  0  0  0
  -21.4241   17.2943  -30.3134 H   0  0  0  0  0  0
  -17.6142   13.2558  -21.6008 H   0  0  0  0  0  0
  -19.9409   12.7048  -21.0194 H   0  0  0  0  0  0
  -17.1951   15.3473  -23.0580 H   0  0  0  0  0  0
  -20.3895   21.0796  -25.7307 H   0  0  0  0  0  0
  -19.2038   16.3050  -24.1945 H   0  0  0  0  0  0
  -17.9015   20.2295  -28.4001 H   0  0  0  0  0  0
  -19.9596   18.9722  -26.5110 H   0  0  0  0  0  0
  -20.0033   12.6590  -28.8843 H   0  0  0  0  0  0
  -21.1921   12.6210  -27.5971 H   0  0  0  0  0  0
  -18.9903   15.4525  -29.1968 H   0  0  0  0  0  0
  -18.8256   13.9922  -27.4480 H   0  0  0  0  0  0
  -18.6380   25.4700  -24.3970 H   0  0  0  0  0  0
  -18.8042   24.4291  -22.9816 H   0  0  0  0  0  0
  -17.2108   24.7921  -23.6100 H   0  0  0  0  0  0
  -21.7929   16.5213  -24.1350 H   0  0  0  0  0  0
  -22.6278   14.9775  -23.9454 H   0  0  0  0  0  0
  -16.4240   23.6175  -25.5104 H   0  0  0  0  0  0
  -19.9233   16.8480  -26.8357 H   0  0  0  0  0  0
  -19.6730   14.3349  -25.4571 H   0  0  0  0  0  0
  1  2  1  0  0  0
  1  3  2  0  0  0
  1 34  1  0  0  0
  2  4  2  0  0  0
  2 35  1  0  0  0
  3  5  1  0  0  0
  3 36  1  0  0  0
  4  6  1  0  0  0
  4 37  1  0  0  0
  5  6  2  0  0  0
  5 20  1  0  0  0
  6 21  1  0  0  0
  7  8  2  0  0  0
  7  9  1  0  0  0
  7 38  1  0  0  0
  8 13  1  0  0  0
  8 39  1  0  0  0
  9 11  2  0  0  0
  9 40  1  0  0  0
 10 12  2  0  0  0
 10 25  1  0  0  0
 10 41  1  0  0  0
 11 27  1  0  0  0
 11 42  1  0  0  0
 12 14  1  0  0  0
 12 16  1  0  0  0
 13 27  1  0  0  0
 13 30  2  0  0  0
 14 26  1  0  0  0
 14 31  2  0  0  0
 15 23  1  0  0  0
 15 25  2  0  0  0
 15 26  1  0  0  0
 16 17  2  0  0  0
 16 43  1  0  0  0
 17 18  1  0  0  0
 17 44  1  0  0  0
 18 28  1  0  0  0
 18 32  2  0  0  0
 19 24  1  0  0  0
 19 29  1  0  0  0
 19 33  2  0  0  0
 20 22  1  0  0  0
 20 45  1  0  0  0
 20 46  1  0  0  0
 21 22  1  0  0  0
 21 28  1  0  0  0
 21 47  1  0  0  0
 22 29  1  0  0  0
 22 48  1  0  0  0
 23 49  1  0  0  0
 23 50  1  0  0  0
 23 51  1  0  0  0
 24 27  1  0  0  0
 24 52  1  0  0  0
 24 53  1  0  0  0
 26 54  1  0  0  0
 28 55  1  0  0  0
 29 56  1  0  0  0
M  END
> <s_i_glide_gridfile>
Cov2_glide-grid_1

> <i_i_glide_lignum>
19

> <i_i_glide_rotatable_bonds>
8

> <r_i_docking_score>
-9.2304

> <r_i_glide_ligand_efficiency>
-0.279709

> <r_i_glide_ligand_efficiency_sa>
-0.897176

> <r_i_glide_ligand_efficiency_ln>
-2.05279

> <r_i_glide_gscore>
-9.2304

> <r_i_glide_lipo>
-4.20811

> <r_i_glide_hbond>
-0.510736

> <r_i_glide_metal>
-0

> <r_i_glide_rewards>
-1.12877

> <r_i_glide_evdw>
-56.5241

> <r_i_glide_ecoul>
-8.10735

> <r_i_glide_erotb>
0.705787

> <r_i_glide_esite>
-0.0462698

> <r_i_glide_emodel>
-95.2784

> <r_i_glide_energy>
-64.6314

> <r_i_glide_einternal>
10.1064

> <i_i_glide_confnum>
163

> <i_i_glide_posenum>
46

> <r_i_glide_eff_state_penalty>
0

$$$$
48
                    3D
 Structure written by MMmdl.
 55 58  0  0  1  0            999 V2000
  -23.6106   15.1825  -31.0802 C   0  0  0  0  0  0
  -23.0942   16.4728  -31.0036 C   0  0  0  0  0  0
  -22.9750   14.1220  -30.4320 C   0  0  0  0  0  0
  -21.9361   16.7134  -30.2698 C   0  0  0  0  0  0
  -21.8416   14.3704  -29.6598 C   0  0  0  0  0  0
  -21.3031   15.6629  -29.5975 C   0  0  0  0  0  0
  -19.5743   21.5593  -25.6537 C   0  0  0  0  0  0
  -18.5217   21.2255  -26.4487 C   0  0  0  0  0  0
  -17.3076   22.0322  -26.3146 C   0  0  0  0  0  0
  -19.5287   14.2197  -22.4323 C   0  0  0  0  0  0
  -18.5398   23.3578  -24.7154 C   0  0  0  0  0  0
  -20.0557   15.9361  -23.8148 C   0  0  0  0  0  0
  -18.5667   20.1421  -27.4295 C   0  0  0  0  0  0
  -19.3285   19.0331  -27.3032 C   0  0  0  0  0  0
  -19.4250   18.0390  -28.3440 C   0  0  0  0  0  0
  -21.9509   14.8714  -26.2398 C   0  0  0  0  0  0
  -20.9772   13.3997  -28.8815 C   0  0  0  0  0  0
  -20.8101   13.8652  -23.1185 C   0  0  0  0  0  0
  -20.0296   15.6493  -28.7614 C   0  0  2  0  0  0
  -20.1501   14.3219  -27.9702 C   0  0  1  0  0  0
  -18.5170   24.5796  -23.8252 C   0  0  0  0  0  0
  -22.2230   15.2252  -24.7643 C   0  0  0  0  0  0
  -19.5919   22.6229  -24.7993 N   0  0  0  0  0  0
  -17.4295   23.0701  -25.4553 N   0  0  0  0  0  0
  -19.2066   15.4210  -22.9089 N   0  0  0  0  0  0
  -21.0579   15.0474  -23.8894 N   0  0  0  0  0  0
  -19.8111   16.8322  -27.9073 N   0  0  0  0  0  0
  -20.7170   14.4640  -26.6120 N   0  0  0  0  0  0
  -16.2375   21.8212  -26.8785 O   0  0  0  0  0  0
  -18.9305   13.5467  -21.6002 O   0  0  0  0  0  0
  -19.9275   16.9825  -24.4484 O   0  0  0  0  0  0
  -19.2106   18.2809  -29.5305 O   0  0  0  0  0  0
  -22.8813   15.0206  -27.0232 O   0  0  0  0  0  0
  -24.5208   15.0142  -31.6320 H   0  0  0  0  0  0
  -23.5896   17.2860  -31.5137 H   0  0  0  0  0  0
  -23.3876   13.1271  -30.5036 H   0  0  0  0  0  0
  -21.5440   17.7172  -30.2383 H   0  0  0  0  0  0
  -20.4988   21.0026  -25.7171 H   0  0  0  0  0  0
  -17.9731   20.2569  -28.3300 H   0  0  0  0  0  0
  -19.9093   18.8488  -26.4099 H   0  0  0  0  0  0
  -20.3278   12.8717  -29.5814 H   0  0  0  0  0  0
  -21.5212   12.6285  -28.3348 H   0  0  0  0  0  0
  -21.6101   13.6860  -22.3997 H   0  0  0  0  0  0
  -20.7071   13.0210  -23.7904 H   0  0  0  0  0  0
  -19.1953   15.5461  -29.4615 H   0  0  0  0  0  0
  -19.1520   13.8973  -27.8448 H   0  0  0  0  0  0
  -18.5712   25.4898  -24.4192 H   0  0  0  0  0  0
  -19.3595   24.5826  -23.1325 H   0  0  0  0  0  0
  -17.6107   24.6218  -23.2216 H   0  0  0  0  0  0
  -22.5485   16.2657  -24.7304 H   0  0  0  0  0  0
  -23.0441   14.6216  -24.3968 H   0  0  0  0  0  0
  -16.5970   23.6214  -25.3291 H   0  0  0  0  0  0
  -18.4114   15.9597  -22.5873 H   0  0  0  0  0  0
  -20.0096   16.7212  -26.9229 H   0  0  0  0  0  0
  -20.0394   14.3668  -25.8713 H   0  0  0  0  0  0
  1  2  1  0  0  0
  1  3  2  0  0  0
  1 34  1  0  0  0
  2  4  2  0  0  0
  2 35  1  0  0  0
  3  5  1  0  0  0
  3 36  1  0  0  0
  4  6  1  0  0  0
  4 37  1  0  0  0
  5  6  2  0  0  0
  5 17  1  0  0  0
  6 19  1  0  0  0
  7  8  2  0  0  0
  7 23  1  0  0  0
  7 38  1  0  0  0
  8  9  1  0  0  0
  8 13  1  0  0  0
  9 24  1  0  0  0
  9 29  2  0  0  0
 10 18  1  0  0  0
 10 25  1  0  0  0
 10 30  2  0  0  0
 11 21  1  0  0  0
 11 23  2  0  0  0
 11 24  1  0  0  0
 12 25  1  0  0  0
 12 26  1  0  0  0
 12 31  2  0  0  0
 13 14  2  0  0  0
 13 39  1  0  0  0
 14 15  1  0  0  0
 14 40  1  0  0  0
 15 27  1  0  0  0
 15 32  2  0  0  0
 16 22  1  0  0  0
 16 28  1  0  0  0
 16 33  2  0  0  0
 17 20  1  0  0  0
 17 41  1  0  0  0
 17 42  1  0  0  0
 18 26  1  0  0  0
 18 43  1  0  0  0
 18 44  1  0  0  0
 19 20  1  0  0  0
 19 27  1  0  0  0
 19 45  1  0  0  0
 20 28  1  0  0  0
 20 46  1  0  0  0
 21 47  1  0  0  0
 21 48  1  0  0  0
 21 49  1  0  0  0
 22 26  1  0  0  0
 22 50  1  0  0  0
 22 51  1  0  0  0
 24 52  1  0  0  0
 25 53  1  0  0  0
 27 54  1  0  0  0
 28 55  1  0  0  0
M  END
> <s_i_glide_gridfile>
Cov2_glide-grid_1

> <i_i_glide_lignum>
13

> <i_i_glide_rotatable_bonds>
8

> <r_i_docking_score>
-9.20354

> <r_i_glide_ligand_efficiency>
-0.278895

> <r_i_glide_ligand_efficiency_sa>
-0.894565

> <r_i_glide_ligand_efficiency_ln>
-2.04682

> <r_i_glide_gscore>
-9.20354

> <r_i_glide_lipo>
-3.34646

> <r_i_glide_hbond>
-0.805895

> <r_i_glide_metal>
-0

> <r_i_glide_rewards>
-1.52478

> <r_i_glide_evdw>
-53.1558

> <r_i_glide_ecoul>
-10.0013

> <r_i_glide_erotb>
0.691679

> <r_i_glide_esite>
-0.0600889

> <r_i_glide_emodel>
-96.6683

> <r_i_glide_energy>
-63.1571

> <r_i_glide_einternal>
6.96446

> <i_i_glide_confnum>
60

> <i_i_glide_posenum>
223

> <r_i_glide_eff_state_penalty>
0

$$$$
14
                    3D
 Structure written by MMmdl.
 61 64  0  0  1  0            999 V2000
  -22.1691   12.9184  -29.7657 C   0  0  0  0  0  0
  -23.1167   13.7270  -30.3865 C   0  0  0  0  0  0
  -21.0093   13.4726  -29.2315 C   0  0  0  0  0  0
  -22.9282   15.1027  -30.4766 C   0  0  0  0  0  0
  -19.6100   15.4616  -28.8008 C   0  0  0  0  0  0
  -19.4159   16.8347  -28.8854 C   0  0  0  0  0  0
  -21.5380   17.1034  -30.0023 C   0  0  0  0  0  0
  -20.7836   14.8695  -29.3157 C   0  0  0  0  0  0
  -21.7620   15.7027  -29.9386 C   0  0  0  0  0  0
  -20.3705   17.6681  -29.4729 C   0  0  0  0  0  0
  -23.0405   21.9003  -31.6573 C   0  0  0  0  0  0
  -20.0918   16.3569  -22.9670 C   0  0  0  0  0  0
  -20.1405   16.0762  -24.2993 C   0  0  0  0  0  0
  -22.1262   21.9823  -32.6589 C   0  0  0  0  0  0
  -24.3127   22.5923  -31.7602 C   0  0  0  0  0  0
  -20.2879   14.6716  -24.6788 C   0  0  0  0  0  0
  -20.2786   14.1885  -22.3177 C   0  0  0  0  0  0
  -23.6069   23.3028  -34.0143 C   0  0  0  0  0  0
  -20.0345   17.0735  -25.3542 C   0  0  0  0  0  0
  -19.5688   18.3349  -25.2012 C   0  0  0  0  0  0
  -19.4907   19.2531  -26.3060 C   0  0  0  0  0  0
  -20.2042   20.9678  -31.2986 C   0  0  0  0  0  0
  -20.3709   13.1274  -21.2609 C   0  0  0  0  0  0
  -20.7463   21.3152  -32.6884 C   0  0  0  0  0  0
  -20.7277   19.9687  -28.3514 C   0  0  0  0  0  0
  -20.1009   19.1804  -29.5444 C   0  0  2  0  0  0
  -20.1785   15.4203  -21.9802 N   0  0  0  0  0  0
  -22.4106   22.6971  -33.7914 N   0  0  0  0  0  0
  -20.3237   13.8210  -23.6310 N   0  0  0  0  0  0
  -24.4737   23.2140  -32.9618 N   0  0  0  0  0  0
  -20.6029   19.2954  -27.0608 N   0  0  0  0  0  0
  -20.4699   19.7307  -30.8529 N   0  0  0  0  0  0
  -25.1518   22.6393  -30.8667 O   0  0  0  0  0  0
  -20.3878   14.2351  -25.8213 O   0  0  0  0  0  0
  -23.8883   23.8210  -35.0889 O   0  0  0  0  0  0
  -18.4701   19.8973  -26.5422 O   0  0  0  0  0  0
  -19.6035   21.8206  -30.6420 O   0  0  0  0  0  0
  -22.3293   11.8516  -29.7026 H   0  0  0  0  0  0
  -24.0090   13.2827  -30.7986 H   0  0  0  0  0  0
  -20.2745   12.8414  -28.7514 H   0  0  0  0  0  0
  -23.6725   15.7228  -30.9536 H   0  0  0  0  0  0
  -18.8623   14.8379  -28.3336 H   0  0  0  0  0  0
  -18.5071   17.2557  -28.4818 H   0  0  0  0  0  0
  -22.2876   17.7299  -30.4682 H   0  0  0  0  0  0
  -22.8550   21.3279  -30.7607 H   0  0  0  0  0  0
  -20.0106   17.3786  -22.6266 H   0  0  0  0  0  0
  -20.3612   16.7703  -26.3419 H   0  0  0  0  0  0
  -19.2107   18.7139  -24.2555 H   0  0  0  0  0  0
  -19.5165   13.1721  -20.5865 H   0  0  0  0  0  0
  -21.2707   13.2644  -20.6613 H   0  0  0  0  0  0
  -20.4143   12.1318  -21.6946 H   0  0  0  0  0  0
  -20.0272   22.0068  -33.1327 H   0  0  0  0  0  0
  -20.7631   20.4521  -33.3555 H   0  0  0  0  0  0
  -21.7935   20.1078  -28.5349 H   0  0  0  0  0  0
  -20.3082   20.9741  -28.2872 H   0  0  0  0  0  0
  -19.0192   19.2965  -29.4625 H   0  0  0  0  0  0
  -21.7230   22.7990  -34.5324 H   0  0  0  0  0  0
  -20.4131   12.8552  -23.9087 H   0  0  0  0  0  0
  -25.3609   23.6718  -33.0922 H   0  0  0  0  0  0
  -21.4122   18.7850  -26.7391 H   0  0  0  0  0  0
  -20.8536   19.0636  -31.5082 H   0  0  0  0  0  0
  1  2  1  0  0  0
  1  3  2  0  0  0
  1 38  1  0  0  0
  2  4  2  0  0  0
  2 39  1  0  0  0
  3  8  1  0  0  0
  3 40  1  0  0  0
  4  9  1  0  0  0
  4 41  1  0  0  0
  5  6  2  0  0  0
  5  8  1  0  0  0
  5 42  1  0  0  0
  6 10  1  0  0  0
  6 43  1  0  0  0
  7  9  1  0  0  0
  7 10  2  0  0  0
  7 44  1  0  0  0
  8  9  2  0  0  0
 10 26  1  0  0  0
 11 14  2  0  0  0
 11 15  1  0  0  0
 11 45  1  0  0  0
 12 13  2  0  0  0
 12 27  1  0  0  0
 12 46  1  0  0  0
 13 16  1  0  0  0
 13 19  1  0  0  0
 14 24  1  0  0  0
 14 28  1  0  0  0
 15 30  1  0  0  0
 15 33  2  0  0  0
 16 29  1  0  0  0
 16 34  2  0  0  0
 17 23  1  0  0  0
 17 27  2  0  0  0
 17 29  1  0  0  0
 18 28  1  0  0  0
 18 30  1  0  0  0
 18 35  2  0  0  0
 19 20  2  0  0  0
 19 47  1  0  0  0
 20 21  1  0  0  0
 20 48  1  0  0  0
 21 31  1  0  0  0
 21 36  2  0  0  0
 22 24  1  0  0  0
 22 32  1  0  0  0
 22 37  2  0  0  0
 23 49  1  0  0  0
 23 50  1  0  0  0
 23 51  1  0  0  0
 24 52  1  0  0  0
 24 53  1  0  0  0
 25 26  1  0  0  0
 25 31  1  0  0  0
 25 54  1  0  0  0
 25 55  1  0  0  0
 26 32  1  0  0  0
 26 56  1  0  0  0
 28 57  1  0  0  0
 29 58  1  0  0  0
 30 59  1  0  0  0
 31 60  1  0  0  0
 32 61  1  0  0  0
M  END
> <s_i_glide_gridfile>
Cov2_glide-grid_1

> <i_i_glide_lignum>
52

> <i_i_glide_rotatable_bonds>
10

> <r_i_docking_score>
-9.14366

> <r_i_glide_ligand_efficiency>
-0.247126

> <r_i_glide_ligand_efficiency_sa>
-0.823478

> <r_i_glide_ligand_efficiency_ln>
-1.98304

> <r_i_glide_gscore>
-9.14366

> <r_i_glide_lipo>
-3.09822

> <r_i_glide_hbond>
-1.28734

> <r_i_glide_metal>
-0

> <r_i_glide_rewards>
-0.969212

> <r_i_glide_evdw>
-56.2005

> <r_i_glide_ecoul>
-10.8732

> <r_i_glide_erotb>
0.652123

> <r_i_glide_esite>
0

> <r_i_glide_emodel>
-97.5325

> <r_i_glide_energy>
-67.0737

> <r_i_glide_einternal>
11.3261

> <i_i_glide_confnum>
45

> <i_i_glide_posenum>
193

> <r_i_glide_eff_state_penalty>
0

$$$$
52
                    3D
 Structure written by MMmdl.
 53 55  0  0  1  0            999 V2000
  -22.0415   12.6208  -29.6027 C   0  0  0  0  0  0
  -22.9264   13.4336  -28.9071 C   0  0  0  0  0  0
  -20.6809   12.9015  -29.6045 C   0  0  0  0  0  0
  -22.4506   14.5441  -28.2215 C   0  0  0  0  0  0
  -20.1949   14.0046  -28.9142 C   0  0  0  0  0  0
  -21.0835   14.8363  -28.2242 C   0  0  0  0  0  0
  -22.3904   14.9702  -20.4880 C   0  0  0  0  0  0
  -21.5983   13.9392  -20.8499 C   0  0  0  0  0  0
  -19.3721   22.3284  -25.2003 C   0  0  0  0  0  0
  -18.3186   21.9232  -25.9485 C   0  0  0  0  0  0
  -22.4249   16.2260  -21.2041 C   0  0  0  0  0  0
  -20.6873   13.9933  -21.9753 C   0  0  0  0  0  0
  -17.0795   22.7000  -25.8526 C   0  0  0  0  0  0
  -18.3090   24.2937  -24.4018 C   0  0  0  0  0  0
  -18.3965   20.7934  -26.8573 C   0  0  0  0  0  0
  -19.4660   20.5860  -27.6559 C   0  0  0  0  0  0
  -19.6310   19.4357  -28.5002 C   0  0  0  0  0  0
  -20.6917   15.5509  -25.1017 C   0  0  0  0  0  0
  -19.8359   15.4422  -23.8223 C   0  0  0  0  0  0
  -19.6377   16.9407  -28.4449 C   0  0  0  0  0  0
  -20.5880   16.1105  -27.5442 C   0  0  2  0  0  0
  -19.3600   23.4328  -24.4013 N   0  0  0  0  0  0
  -17.2110   23.8215  -25.0762 N   0  0  0  0  0  0
  -21.4991   16.3011  -22.1950 N   0  0  0  0  0  0
  -20.6711   15.2063  -22.6237 N   0  0  0  0  0  0
  -19.3896   18.2684  -27.8835 N   0  0  0  0  0  0
  -20.0107   15.8681  -26.2150 N   0  0  0  0  0  0
  -23.2240   17.1286  -20.9789 O   0  0  0  0  0  0
  -20.0110   13.0210  -22.3000 O   0  0  0  0  0  0
  -16.0137   22.4039  -26.4002 O   0  0  0  0  0  0
  -18.3856   25.4194  -23.9180 O   0  0  0  0  0  0
  -20.0285   19.5352  -29.6592 O   0  0  0  0  0  0
  -21.9144   15.3991  -25.0818 O   0  0  0  0  0  0
  -22.4090   11.7604  -30.1432 H   0  0  0  0  0  0
  -23.9821   13.2226  -28.9101 H   0  0  0  0  0  0
  -20.0106   12.2586  -30.1518 H   0  0  0  0  0  0
  -23.1502   15.1804  -27.6979 H   0  0  0  0  0  0
  -19.1352   14.2114  -28.9329 H   0  0  0  0  0  0
  -23.0417   14.8689  -19.6321 H   0  0  0  0  0  0
  -21.6221   13.0211  -20.2797 H   0  0  0  0  0  0
  -20.3370   21.8420  -25.1895 H   0  0  0  0  0  0
  -17.5729   20.0926  -26.8635 H   0  0  0  0  0  0
  -20.2861   21.2873  -27.6951 H   0  0  0  0  0  0
  -19.0970   14.6532  -23.9781 H   0  0  0  0  0  0
  -19.2654   16.3621  -23.6869 H   0  0  0  0  0  0
  -20.0662   17.0095  -29.4493 H   0  0  0  0  0  0
  -18.6800   16.4382  -28.5724 H   0  0  0  0  0  0
  -21.4627   16.7512  -27.3987 H   0  0  0  0  0  0
  -20.1430   23.7054  -23.8267 H   0  0  0  0  0  0
  -16.3872   24.4019  -24.9985 H   0  0  0  0  0  0
  -21.4612   17.0781  -22.8379 H   0  0  0  0  0  0
  -19.0563   18.2965  -26.9336 H   0  0  0  0  0  0
  -19.0031   15.8749  -26.1643 H   0  0  0  0  0  0
  1  2  1  0  0  0
  1  3  2  0  0  0
  1 34  1  0  0  0
  2  4  2  0  0  0
  2 35  1  0  0  0
  3  5  1  0  0  0
  3 36  1  0  0  0
  4  6  1  0  0  0
  4 37  1  0  0  0
  5  6  2  0  0  0
  5 38  1  0  0  0
  6 21  1  0  0  0
  7  8  2  0  0  0
  7 11  1  0  0  0
  7 39  1  0  0  0
  8 12  1  0  0  0
  8 40  1  0  0  0
  9 10  2  0  0  0
  9 22  1  0  0  0
  9 41  1  0  0  0
 10 13  1  0  0  0
 10 15  1  0  0  0
 11 24  1  0  0  0
 11 28  2  0  0  0
 12 25  1  0  0  0
 12 29  2  0  0  0
 13 23  1  0  0  0
 13 30  2  0  0  0
 14 22  1  0  0  0
 14 23  1  0  0  0
 14 31  2  0  0  0
 15 16  2  0  0  0
 15 42  1  0  0  0
 16 17  1  0  0  0
 16 43  1  0  0  0
 17 26  1  0  0  0
 17 32  2  0  0  0
 18 19  1  0  0  0
 18 27  1  0  0  0
 18 33  2  0  0  0
 19 25  1  0  0  0
 19 44  1  0  0  0
 19 45  1  0  0  0
 20 21  1  0  0  0
 20 26  1  0  0  0
 20 46  1  0  0  0
 20 47  1  0  0  0
 21 27  1  0  0  0
 21 48  1  0  0  0
 22 49  1  0  0  0
 23 50  1  0  0  0
 24 25  1  0  0  0
 24 51  1  0  0  0
 26 52  1  0  0  0
 27 53  1  0  0  0
M  END
> <s_i_glide_gridfile>
Cov2_glide-grid_1

> <i_i_glide_lignum>
24

> <i_i_glide_rotatable_bonds>
10

> <r_i_docking_score>
-9.12604

> <r_i_glide_ligand_efficiency>
-0.276547

> <r_i_glide_ligand_efficiency_sa>
-0.887033

> <r_i_glide_ligand_efficiency_ln>
-2.02958

> <r_i_glide_gscore>
-9.12604

> <r_i_glide_lipo>
-3.74652

> <r_i_glide_hbond>
-0.835615

> <r_i_glide_metal>
-0

> <r_i_glide_rewards>
-0.939862

> <r_i_glide_evdw>
-54.8788

> <r_i_glide_ecoul>
-8.97353

> <r_i_glide_erotb>
0.686203

> <r_i_glide_esite>
-0.200273

> <r_i_glide_emodel>
-94.5611

> <r_i_glide_energy>
-63.8523

> <r_i_glide_einternal>
5.87499

> <i_i_glide_confnum>
153

> <i_i_glide_posenum>
183

> <r_i_glide_eff_state_penalty>
0

$$$$
67
                    3D
 Structure written by MMmdl.
 56 59  0  0  1  0            999 V2000
  -24.5508   17.2942  -32.4315 C   0  0  0  0  0  0
  -23.4716   18.1696  -32.3322 C   0  0  0  0  0  0
  -24.5175   16.0695  -31.7675 C   0  0  0  0  0  0
  -22.3469   17.8145  -31.5911 C   0  0  0  0  0  0
  -23.4006   15.7117  -31.0089 C   0  0  0  0  0  0
  -22.3175   16.5896  -30.9201 C   0  0  0  0  0  0
  -18.0214   21.9274  -27.2145 C   0  0  0  0  0  0
  -18.0794   21.1127  -26.1383 C   0  0  0  0  0  0
  -19.9200   13.6069  -23.4962 C   0  0  0  0  0  0
  -20.6596   14.4928  -24.2145 C   0  0  0  0  0  0
  -18.8108   21.6983  -28.4030 C   0  0  0  0  0  0
  -18.9309   19.9397  -26.0793 C   0  0  0  0  0  0
  -21.6105   15.3237  -23.4802 C   0  0  0  0  0  0
  -20.9377   14.0912  -21.5235 C   0  0  0  0  0  0
  -20.6260   14.6008  -25.6643 C   0  0  0  0  0  0
  -20.1006   13.6764  -26.4991 C   0  0  0  0  0  0
  -20.1849   13.8214  -27.9242 C   0  0  0  0  0  0
  -20.4145   17.8268  -28.4045 C   0  0  0  0  0  0
  -23.2102   14.5456  -30.0573 C   0  0  0  0  0  0
  -21.2926   16.0730  -29.9342 C   0  0  2  0  0  0
  -21.7217   14.6043  -29.7002 C   0  0  1  0  0  0
  -21.2538   13.8210  -20.0803 C   0  0  0  0  0  0
  -20.7952   18.7541  -27.2357 C   0  0  0  0  0  0
  -20.0560   13.3992  -22.1521 N   0  0  0  0  0  0
  -21.6749   15.0420  -22.1619 N   0  0  0  0  0  0
  -19.7994   20.7906  -28.2147 N   0  0  0  0  0  0
  -19.8376   19.8704  -27.1102 N   0  0  0  0  0  0
  -21.4190   14.1382  -28.3534 N   0  0  0  0  0  0
  -21.3560   16.9399  -28.7483 N   0  0  0  0  0  0
  -18.6135   22.2210  -29.4948 O   0  0  0  0  0  0
  -18.8107   19.0852  -25.2017 O   0  0  0  0  0  0
  -22.3454   16.1834  -23.9581 O   0  0  0  0  0  0
  -19.2137   13.6707  -28.6630 O   0  0  0  0  0  0
  -19.3470   17.9421  -29.0097 O   0  0  0  0  0  0
  -25.4232   17.5728  -33.0057 H   0  0  0  0  0  0
  -23.5158   19.1391  -32.8024 H   0  0  0  0  0  0
  -25.3792   15.4225  -31.8302 H   0  0  0  0  0  0
  -21.5243   18.5083  -31.5015 H   0  0  0  0  0  0
  -17.3783   22.7958  -27.1995 H   0  0  0  0  0  0
  -17.4892   21.3474  -25.2670 H   0  0  0  0  0  0
  -19.2082   12.9689  -23.9969 H   0  0  0  0  0  0
  -21.0764   15.4857  -26.1032 H   0  0  0  0  0  0
  -19.6069   12.7804  -26.1557 H   0  0  0  0  0  0
  -23.5029   13.5740  -30.4556 H   0  0  0  0  0  0
  -23.8236   14.7228  -29.1731 H   0  0  0  0  0  0
  -20.3039   16.0617  -30.4007 H   0  0  0  0  0  0
  -21.1880   13.9723  -30.4019 H   0  0  0  0  0  0
  -20.3659   13.5105  -19.5289 H   0  0  0  0  0  0
  -21.6770   14.6978  -19.6014 H   0  0  0  0  0  0
  -21.9945   13.0272  -19.9977 H   0  0  0  0  0  0
  -21.7944   19.1604  -27.3990 H   0  0  0  0  0  0
  -20.8581   18.1506  -26.3277 H   0  0  0  0  0  0
  -22.3375   15.5978  -21.6507 H   0  0  0  0  0  0
  -20.2958   20.4191  -29.0114 H   0  0  0  0  0  0
  -22.1528   14.2245  -27.6682 H   0  0  0  0  0  0
  -22.2061   16.9000  -28.2068 H   0  0  0  0  0  0
  1  2  1  0  0  0
  1  3  2  0  0  0
  1 35  1  0  0  0
  2  4  2  0  0  0
  2 36  1  0  0  0
  3  5  1  0  0  0
  3 37  1  0  0  0
  4  6  1  0  0  0
  4 38  1  0  0  0
  5  6  2  0  0  0
  5 19  1  0  0  0
  6 20  1  0  0  0
  7  8  2  0  0  0
  7 11  1  0  0  0
  7 39  1  0  0  0
  8 12  1  0  0  0
  8 40  1  0  0  0
  9 10  2  0  0  0
  9 24  1  0  0  0
  9 41  1  0  0  0
 10 13  1  0  0  0
 10 15  1  0  0  0
 11 26  1  0  0  0
 11 30  2  0  0  0
 12 27  1  0  0  0
 12 31  2  0  0  0
 13 25  1  0  0  0
 13 32  2  0  0  0
 14 22  1  0  0  0
 14 24  2  0  0  0
 14 25  1  0  0  0
 15 16  2  0  0  0
 15 42  1  0  0  0
 16 17  1  0  0  0
 16 43  1  0  0  0
 17 28  1  0  0  0
 17 33  2  0  0  0
 18 23  1  0  0  0
 18 29  1  0  0  0
 18 34  2  0  0  0
 19 21  1  0  0  0
 19 44  1  0  0  0
 19 45  1  0  0  0
 20 21  1  0  0  0
 20 29  1  0  0  0
 20 46  1  0  0  0
 21 28  1  0  0  0
 21 47  1  0  0  0
 22 48  1  0  0  0
 22 49  1  0  0  0
 22 50  1  0  0  0
 23 27  1  0  0  0
 23 51  1  0  0  0
 23 52  1  0  0  0
 25 53  1  0  0  0
 26 27  1  0  0  0
 26 54  1  0  0  0
 28 55  1  0  0  0
 29 56  1  0  0  0
M  END
> <s_i_glide_gridfile>
Cov2_glide-grid_1

> <i_i_glide_lignum>
72

> <i_i_glide_rotatable_bonds>
8

> <r_i_docking_score>
-9.11694

> <r_i_glide_ligand_efficiency>
-0.268145

> <r_i_glide_ligand_efficiency_sa>
-0.868687

> <r_i_glide_ligand_efficiency_ln>
-2.01419

> <r_i_glide_gscore>
-9.11694

> <r_i_glide_lipo>
-3.60768

> <r_i_glide_hbond>
-0.793453

> <r_i_glide_metal>
-0

> <r_i_glide_rewards>
-1.38618

> <r_i_glide_evdw>
-54.328

> <r_i_glide_ecoul>
-8.48367

> <r_i_glide_erotb>
0.659328

> <r_i_glide_esite>
0

> <r_i_glide_emodel>
-93.0557

> <r_i_glide_energy>
-62.8117

> <r_i_glide_einternal>
6.3333

> <i_i_glide_confnum>
33

> <i_i_glide_posenum>
256

> <r_i_glide_eff_state_penalty>
0

$$$$
89
                    3D
 Structure written by MMmdl.
 55 58  0  0  1  0            999 V2000
  -26.1261   17.6374  -32.4821 C   0  0  0  0  0  0
  -26.4278   18.6649  -31.5976 C   0  0  0  0  0  0
  -24.9090   16.9674  -32.4026 C   0  0  0  0  0  0
  -25.5129   19.0363  -30.6162 C   0  0  0  0  0  0
  -22.6946   16.6855  -31.3513 C   0  0  0  0  0  0
  -21.7789   17.0616  -30.3740 C   0  0  0  0  0  0
  -23.3199   18.7123  -29.5192 C   0  0  0  0  0  0
  -23.9521   17.3277  -31.4315 C   0  0  0  0  0  0
  -24.2641   18.3725  -30.5128 C   0  0  0  0  0  0
  -22.0899   18.0527  -29.4399 C   0  0  0  0  0  0
  -19.2112   22.6728  -25.7955 C   0  0  0  0  0  0
  -17.2598   22.0275  -27.0670 C   0  0  0  0  0  0
  -20.0882   14.0484  -23.5044 C   0  0  0  0  0  0
  -18.3866   23.3617  -24.9790 C   0  0  0  0  0  0
  -20.7884   13.8205  -21.3485 C   0  0  0  0  0  0
  -18.6114   21.9785  -26.9356 C   0  0  0  0  0  0
  -20.9789   15.0350  -23.8052 C   0  0  0  0  0  0
  -16.3922   22.6212  -26.0609 C   0  0  0  0  0  0
  -21.9002   15.4408  -22.7442 C   0  0  0  0  0  0
  -21.0480   15.7370  -25.0882 C   0  0  0  0  0  0
  -20.1043   15.6838  -26.0571 C   0  0  0  0  0  0
  -19.4361   21.2873  -27.8999 C   0  0  0  0  0  0
  -20.1726   16.3975  -27.3125 C   0  0  0  0  0  0
  -19.7886   19.1035  -29.0316 C   0  0  0  0  0  0
  -21.0718   18.5104  -28.3935 C   0  0  2  0  0  0
  -20.0099   13.4214  -22.2911 N   0  0  0  0  0  0
  -17.0242   23.3764  -25.1228 N   0  0  0  0  0  0
  -21.7074   14.8023  -21.5690 N   0  0  0  0  0  0
  -19.0736   20.0110  -28.1325 N   0  0  0  0  0  0
  -20.8378   17.5703  -27.2855 N   0  0  0  0  0  0
  -15.2110   22.3196  -26.0012 O   0  0  0  0  0  0
  -22.8083   16.2615  -22.8478 O   0  0  0  0  0  0
  -20.4103   21.8194  -28.4348 O   0  0  0  0  0  0
  -19.6123   15.9595  -28.3138 O   0  0  0  0  0  0
  -26.8351   17.3600  -33.2472 H   0  0  0  0  0  0
  -27.3760   19.1757  -31.6724 H   0  0  0  0  0  0
  -24.6784   16.1822  -33.1071 H   0  0  0  0  0  0
  -25.7534   19.8299  -29.9247 H   0  0  0  0  0  0
  -22.4405   15.9122  -32.0635 H   0  0  0  0  0  0
  -20.8155   16.5751  -30.3602 H   0  0  0  0  0  0
  -23.5668   19.5030  -28.8256 H   0  0  0  0  0  0
  -20.2698   22.6202  -25.5962 H   0  0  0  0  0  0
  -16.7689   21.5546  -27.9060 H   0  0  0  0  0  0
  -19.3787   13.7054  -24.2436 H   0  0  0  0  0  0
  -18.7047   23.8515  -24.0671 H   0  0  0  0  0  0
  -20.7503   13.3790  -20.3560 H   0  0  0  0  0  0
  -21.9254   16.3486  -25.2657 H   0  0  0  0  0  0
  -19.2198   15.0721  -25.9537 H   0  0  0  0  0  0
  -19.1101   18.3064  -29.3377 H   0  0  0  0  0  0
  -20.0378   19.6361  -29.9528 H   0  0  0  0  0  0
  -21.5483   19.3504  -27.8845 H   0  0  0  0  0  0
  -16.4296   23.7008  -24.3635 H   0  0  0  0  0  0
  -22.3303   15.0891  -20.8336 H   0  0  0  0  0  0
  -18.2643   19.6399  -27.6581 H   0  0  0  0  0  0
  -21.2989   17.8075  -26.4218 H   0  0  0  0  0  0
  1  2  1  0  0  0
  1  3  2  0  0  0
  1 35  1  0  0  0
  2  4  2  0  0  0
  2 36  1  0  0  0
  3  8  1  0  0  0
  3 37  1  0  0  0
  4  9  1  0  0  0
  4 38  1  0  0  0
  5  6  2  0  0  0
  5  8  1  0  0  0
  5 39  1  0  0  0
  6 10  1  0  0  0
  6 40  1  0  0  0
  7  9  1  0  0  0
  7 10  2  0  0  0
  7 41  1  0  0  0
  8  9  2  0  0  0
 10 25  1  0  0  0
 11 14  2  0  0  0
 11 16  1  0  0  0
 11 42  1  0  0  0
 12 16  2  0  0  0
 12 18  1  0  0  0
 12 43  1  0  0  0
 13 17  2  0  0  0
 13 26  1  0  0  0
 13 44  1  0  0  0
 14 27  1  0  0  0
 14 45  1  0  0  0
 15 26  2  0  0  0
 15 28  1  0  0  0
 15 46  1  0  0  0
 16 22  1  0  0  0
 17 19  1  0  0  0
 17 20  1  0  0  0
 18 27  1  0  0  0
 18 31  2  0  0  0
 19 28  1  0  0  0
 19 32  2  0  0  0
 20 21  2  0  0  0
 20 47  1  0  0  0
 21 23  1  0  0  0
 21 48  1  0  0  0
 22 29  1  0  0  0
 22 33  2  0  0  0
 23 30  1  0  0  0
 23 34  2  0  0  0
 24 25  1  0  0  0
 24 29  1  0  0  0
 24 49  1  0  0  0
 24 50  1  0  0  0
 25 30  1  0  0  0
 25 51  1  0  0  0
 27 52  1  0  0  0
 28 53  1  0  0  0
 29 54  1  0  0  0
 30 55  1  0  0  0
M  END
> <s_i_glide_gridfile>
Cov2_glide-grid_1

> <i_i_glide_lignum>
91

> <i_i_glide_rotatable_bonds>
9

> <r_i_docking_score>
-9.11661

> <r_i_glide_ligand_efficiency>
-0.268136

> <r_i_glide_ligand_efficiency_sa>
-0.868655

> <r_i_glide_ligand_efficiency_ln>
-2.01411

> <r_i_glide_gscore>
-9.11661

> <r_i_glide_lipo>
-2.84891

> <r_i_glide_hbond>
-1.08458

> <r_i_glide_metal>
-0

> <r_i_glide_rewards>
-0.977824

> <r_i_glide_evdw>
-45.6987

> <r_i_glide_ecoul>
-16.1077

> <r_i_glide_erotb>
0.581039

> <r_i_glide_esite>
-0.0852342

> <r_i_glide_emodel>
-92.1187

> <r_i_glide_energy>
-61.8065

> <r_i_glide_einternal>
7.49866

> <i_i_glide_confnum>
71

> <i_i_glide_posenum>
339

> <r_i_glide_eff_state_penalty>
0

$$$$
60
                    3D
 Structure written by MMmdl.
 59 62  0  0  1  0            999 V2000
  -22.2020   12.5572  -29.8656 C   0  0  0  0  0  0
  -20.8115   12.6255  -29.8875 C   0  0  0  0  0  0
  -22.9349   13.5524  -29.2265 C   0  0  0  0  0  0
  -20.1487   13.6939  -29.2821 C   0  0  0  0  0  0
  -22.2801   14.6257  -28.6259 C   0  0  0  0  0  0
  -20.8846   14.7035  -28.6589 C   0  0  0  0  0  0
  -21.5773   14.2363  -20.7351 C   0  0  0  0  0  0
  -22.5765   15.1395  -20.8224 C   0  0  0  0  0  0
  -19.3842   22.3687  -25.5771 C   0  0  0  0  0  0
  -18.3403   21.8967  -26.3113 C   0  0  0  0  0  0
  -20.4089   14.2767  -21.5860 C   0  0  0  0  0  0
  -22.6046   16.2004  -21.8111 C   0  0  0  0  0  0
  -17.0465   22.5417  -26.1064 C   0  0  0  0  0  0
  -18.1639   23.9584  -24.5039 C   0  0  0  0  0  0
  -18.4380   20.7878  -27.2578 C   0  0  0  0  0  0
  -19.5900   20.4150  -27.8544 C   0  0  0  0  0  0
  -19.7170   19.2729  -28.7171 C   0  0  0  0  0  0
  -21.5737   16.4333  -25.0339 C   0  0  0  0  0  0
  -22.8811   15.7717  -27.8521 C   0  0  0  0  0  0
  -20.3858   15.9454  -27.9522 C   0  0  2  0  0  0
  -21.6861   16.6835  -27.5346 C   0  0  2  0  0  0
  -18.0214   25.1097  -23.5382 C   0  0  0  0  0  0
  -21.3529   17.2057  -23.7147 C   0  0  0  0  0  0
  -19.3906   16.7974  -28.7784 C   0  0  0  0  0  0
  -19.3057   23.4009  -24.6897 N   0  0  0  0  0  0
  -17.0669   23.5463  -25.2017 N   0  0  0  0  0  0
  -20.3586   15.3791  -22.3759 N   0  0  0  0  0  0
  -21.4471   16.2991  -22.5514 N   0  0  0  0  0  0
  -19.2101   18.1355  -28.2108 N   0  0  0  0  0  0
  -21.6250   17.1808  -26.1506 N   0  0  0  0  0  0
  -19.5321   13.4196  -21.6017 O   0  0  0  0  0  0
  -23.6106   16.8838  -22.0011 O   0  0  0  0  0  0
  -16.0108   22.2209  -26.6778 O   0  0  0  0  0  0
  -20.3281   19.3353  -29.7810 O   0  0  0  0  0  0
  -21.6643   15.2040  -25.0527 O   0  0  0  0  0  0
  -22.7066   11.7278  -30.3374 H   0  0  0  0  0  0
  -20.2443   11.8579  -30.3883 H   0  0  0  0  0  0
  -24.0104   13.4885  -29.2024 H   0  0  0  0  0  0
  -19.0694   13.7312  -29.3109 H   0  0  0  0  0  0
  -21.6215   13.4515  -19.9943 H   0  0  0  0  0  0
  -23.4210   15.0646  -20.1525 H   0  0  0  0  0  0
  -20.3609   21.9160  -25.6706 H   0  0  0  0  0  0
  -17.5375   20.2248  -27.4784 H   0  0  0  0  0  0
  -20.5101   20.9593  -27.7085 H   0  0  0  0  0  0
  -23.3771   15.4042  -26.9531 H   0  0  0  0  0  0
  -23.6108   16.3149  -28.4507 H   0  0  0  0  0  0
  -19.8477   15.6086  -27.0645 H   0  0  0  0  0  0
  -21.8136   17.5410  -28.1955 H   0  0  0  0  0  0
  -18.4270   26.0248  -23.9689 H   0  0  0  0  0  0
  -18.5608   24.9049  -22.6122 H   0  0  0  0  0  0
  -16.9829   25.2924  -23.2642 H   0  0  0  0  0  0
  -20.3647   17.6676  -23.7312 H   0  0  0  0  0  0
  -22.0708   18.0268  -23.6558 H   0  0  0  0  0  0
  -19.7227   16.8562  -29.8204 H   0  0  0  0  0  0
  -18.4237   16.2980  -28.8032 H   0  0  0  0  0  0
  -16.1752   23.9744  -24.9995 H   0  0  0  0  0  0
  -19.6549   15.4850  -23.0913 H   0  0  0  0  0  0
  -18.6862   18.1876  -27.3531 H   0  0  0  0  0  0
  -21.5822   18.1834  -26.0547 H   0  0  0  0  0  0
  1  2  1  0  0  0
  1  3  2  0  0  0
  1 36  1  0  0  0
  2  4  2  0  0  0
  2 37  1  0  0  0
  3  5  1  0  0  0
  3 38  1  0  0  0
  4  6  1  0  0  0
  4 39  1  0  0  0
  5  6  2  0  0  0
  5 19  1  0  0  0
  6 20  1  0  0  0
  7  8  2  0  0  0
  7 11  1  0  0  0
  7 40  1  0  0  0
  8 12  1  0  0  0
  8 41  1  0  0  0
  9 10  2  0  0  0
  9 25  1  0  0  0
  9 42  1  0  0  0
 10 13  1  0  0  0
 10 15  1  0  0  0
 11 27  1  0  0  0
 11 31  2  0  0  0
 12 28  1  0  0  0
 12 32  2  0  0  0
 13 26  1  0  0  0
 13 33  2  0  0  0
 14 22  1  0  0  0
 14 25  2  0  0  0
 14 26  1  0  0  0
 15 16  2  0  0  0
 15 43  1  0  0  0
 16 17  1  0  0  0
 16 44  1  0  0  0
 17 29  1  0  0  0
 17 34  2  0  0  0
 18 23  1  0  0  0
 18 30  1  0  0  0
 18 35  2  0  0  0
 19 21  1  0  0  0
 19 45  1  0  0  0
 19 46  1  0  0  0
 20 21  1  0  0  0
 20 24  1  0  0  0
 20 47  1  0  0  0
 21 30  1  0  0  0
 21 48  1  0  0  0
 22 49  1  0  0  0
 22 50  1  0  0  0
 22 51  1  0  0  0
 23 28  1  0  0  0
 23 52  1  0  0  0
 23 53  1  0  0  0
 24 29  1  0  0  0
 24 54  1  0  0  0
 24 55  1  0  0  0
 26 56  1  0  0  0
 27 28  1  0  0  0
 27 57  1  0  0  0
 29 58  1  0  0  0
 30 59  1  0  0  0
M  END
> <s_i_glide_gridfile>
Cov2_glide-grid_1

> <i_i_glide_lignum>
75

> <i_i_glide_rotatable_bonds>
9

> <r_i_docking_score>
-9.05374

> <r_i_glide_ligand_efficiency>
-0.258678

> <r_i_glide_ligand_efficiency_sa>
-0.846154

> <r_i_glide_ligand_efficiency_ln>
-1.9875

> <r_i_glide_gscore>
-9.05374

> <r_i_glide_lipo>
-3.71895

> <r_i_glide_hbond>
-0.872009

> <r_i_glide_metal>
-0

> <r_i_glide_rewards>
-0.488211

> <r_i_glide_evdw>
-52.9688

> <r_i_glide_ecoul>
-12.6756

> <r_i_glide_erotb>
0.713542

> <r_i_glide_esite>
-0.138333

> <r_i_glide_emodel>
-97.4839

> <r_i_glide_energy>
-65.6444

> <r_i_glide_einternal>
7.07982

> <i_i_glide_confnum>
27

> <i_i_glide_posenum>
315

> <r_i_glide_eff_state_penalty>
0

$$$$
92
                    3D
 Structure written by MMmdl.
 59 62  0  0  1  0            999 V2000
  -22.1294   12.7915  -29.9087 C   0  0  0  0  0  0
  -23.1267   13.6275  -30.3964 C   0  0  0  0  0  0
  -20.9583   13.3258  -29.3762 C   0  0  0  0  0  0
  -22.9717   15.0116  -30.3640 C   0  0  0  0  0  0
  -19.5897   15.3028  -28.8049 C   0  0  0  0  0  0
  -19.4293   16.6850  -28.7854 C   0  0  0  0  0  0
  -21.6068   16.9958  -29.7718 C   0  0  0  0  0  0
  -20.7703   14.7295  -29.3270 C   0  0  0  0  0  0
  -21.7936   15.5894  -29.8272 C   0  0  0  0  0  0
  -20.4271   17.5444  -29.2475 C   0  0  0  0  0  0
  -19.6648   15.3344  -22.9436 C   0  0  0  0  0  0
  -25.0559   20.9248  -32.7952 C   0  0  0  0  0  0
  -20.8117   14.1705  -21.3560 C   0  0  0  0  0  0
  -20.7204   16.1257  -23.2871 C   0  0  0  0  0  0
  -23.9186   21.6423  -32.6204 C   0  0  0  0  0  0
  -21.9749   15.9029  -22.5734 C   0  0  0  0  0  0
  -23.8655   22.9629  -33.2785 C   0  0  0  0  0  0
  -26.1943   22.6005  -34.0332 C   0  0  0  0  0  0
  -20.6756   17.1738  -24.3081 C   0  0  0  0  0  0
  -22.8624   21.1269  -31.7488 C   0  0  0  0  0  0
  -19.5351   17.7104  -24.8018 C   0  0  0  0  0  0
  -21.6088   21.6112  -31.5667 C   0  0  0  0  0  0
  -19.4431   18.7077  -25.8437 C   0  0  0  0  0  0
  -20.6856   21.0831  -30.5877 C   0  0  0  0  0  0
  -20.6368   19.6832  -27.8055 C   0  0  0  0  0  0
  -20.1952   19.0653  -29.1719 C   0  0  2  0  0  0
  -19.7128   14.3425  -22.0024 N   0  0  0  0  0  0
  -26.1364   21.3467  -33.5112 N   0  0  0  0  0  0
  -21.9110   14.9327  -21.6313 N   0  0  0  0  0  0
  -25.0272   23.3085  -33.9067 N   0  0  0  0  0  0
  -20.5176   18.8111  -26.6406 N   0  0  0  0  0  0
  -20.8262   19.7765  -30.2911 N   0  0  0  0  0  0
  -23.0317   16.5010  -22.7654 O   0  0  0  0  0  0
  -22.9160   23.7490  -33.2825 O   0  0  0  0  0  0
  -27.2101   23.0552  -34.5487 O   0  0  0  0  0  0
  -18.4157   19.3733  -26.0017 O   0  0  0  0  0  0
  -19.8921   21.8212  -30.0054 O   0  0  0  0  0  0
  -22.2586   11.7189  -29.9490 H   0  0  0  0  0  0
  -24.0270   13.1975  -30.8027 H   0  0  0  0  0  0
  -20.1851   12.6684  -29.0052 H   0  0  0  0  0  0
  -23.7543   15.6527  -30.7453 H   0  0  0  0  0  0
  -18.8057   14.6607  -28.4314 H   0  0  0  0  0  0
  -18.5079   17.0932  -28.3919 H   0  0  0  0  0  0
  -22.3970   17.6336  -30.1384 H   0  0  0  0  0  0
  -18.7131   15.4459  -23.4409 H   0  0  0  0  0  0
  -25.2369   19.9532  -32.3563 H   0  0  0  0  0  0
  -20.9034   13.4132  -20.5812 H   0  0  0  0  0  0
  -21.6245   17.5270  -24.6963 H   0  0  0  0  0  0
  -23.1524   20.2572  -31.1719 H   0  0  0  0  0  0
  -18.5769   17.4213  -24.4021 H   0  0  0  0  0  0
  -21.2308   22.4642  -32.1081 H   0  0  0  0  0  0
  -20.1223   20.6315  -27.6341 H   0  0  0  0  0  0
  -21.6946   19.9403  -27.8584 H   0  0  0  0  0  0
  -19.1182   19.2099  -29.2781 H   0  0  0  0  0  0
  -26.9552   20.7686  -33.6456 H   0  0  0  0  0  0
  -22.7651   14.7940  -21.1190 H   0  0  0  0  0  0
  -25.0367   24.2284  -34.3202 H   0  0  0  0  0  0
  -21.3066   18.2142  -26.4514 H   0  0  0  0  0  0
  -21.3217   19.1998  -30.9534 H   0  0  0  0  0  0
  1  2  1  0  0  0
  1  3  2  0  0  0
  1 38  1  0  0  0
  2  4  2  0  0  0
  2 39  1  0  0  0
  3  8  1  0  0  0
  3 40  1  0  0  0
  4  9  1  0  0  0
  4 41  1  0  0  0
  5  6  2  0  0  0
  5  8  1  0  0  0
  5 42  1  0  0  0
  6 10  1  0  0  0
  6 43  1  0  0  0
  7  9  1  0  0  0
  7 10  2  0  0  0
  7 44  1  0  0  0
  8  9  2  0  0  0
 10 26  1  0  0  0
 11 14  2  0  0  0
 11 27  1  0  0  0
 11 45  1  0  0  0
 12 15  2  0  0  0
 12 28  1  0  0  0
 12 46  1  0  0  0
 13 27  2  0  0  0
 13 29  1  0  0  0
 13 47  1  0  0  0
 14 16  1  0  0  0
 14 19  1  0  0  0
 15 17  1  0  0  0
 15 20  1  0  0  0
 16 29  1  0  0  0
 16 33  2  0  0  0
 17 30  1  0  0  0
 17 34  2  0  0  0
 18 28  1  0  0  0
 18 30  1  0  0  0
 18 35  2  0  0  0
 19 21  2  0  0  0
 19 48  1  0  0  0
 20 22  2  0  0  0
 20 49  1  0  0  0
 21 23  1  0  0  0
 21 50  1  0  0  0
 22 24  1  0  0  0
 22 51  1  0  0  0
 23 31  1  0  0  0
 23 36  2  0  0  0
 24 32  1  0  0  0
 24 37  2  0  0  0
 25 26  1  0  0  0
 25 31  1  0  0  0
 25 52  1  0  0  0
 25 53  1  0  0  0
 26 32  1  0  0  0
 26 54  1  0  0  0
 28 55  1  0  0  0
 29 56  1  0  0  0
 30 57  1  0  0  0
 31 58  1  0  0  0
 32 59  1  0  0  0
M  END
> <s_i_glide_gridfile>
Cov2_glide-grid_1

> <i_i_glide_lignum>
97

> <i_i_glide_rotatable_bonds>
10

> <r_i_docking_score>
-9.04601

> <r_i_glide_ligand_efficiency>
-0.244487

> <r_i_glide_ligand_efficiency_sa>
-0.814684

> <r_i_glide_ligand_efficiency_ln>
-1.96187

> <r_i_glide_gscore>
-9.04601

> <r_i_glide_lipo>
-2.85604

> <r_i_glide_hbond>
-1.26164

> <r_i_glide_metal>
-0

> <r_i_glide_rewards>
-0.782928

> <r_i_glide_evdw>
-51.676

> <r_i_glide_ecoul>
-14.243

> <r_i_glide_erotb>
0.574845

> <r_i_glide_esite>
0

> <r_i_glide_emodel>
-96.717

> <r_i_glide_energy>
-65.919

> <r_i_glide_einternal>
13.0564

> <i_i_glide_confnum>
146

> <i_i_glide_posenum>
99

> <r_i_glide_eff_state_penalty>
0

$$$$
8
                    3D
 Structure written by MMmdl.
 56 59  0  0  1  0            999 V2000
  -23.2005   14.2085  -30.6432 C   0  0  0  0  0  0
  -22.8168   15.5276  -30.8857 C   0  0  0  0  0  0
  -22.5287   13.4422  -29.6906 C   0  0  0  0  0  0
  -21.7418   16.0820  -30.1885 C   0  0  0  0  0  0
  -21.4739   14.0059  -28.9734 C   0  0  0  0  0  0
  -21.0567   15.3174  -29.2421 C   0  0  0  0  0  0
  -22.0105   15.0465  -22.0700 C   0  0  0  0  0  0
  -19.4998   21.7334  -25.7794 C   0  0  0  0  0  0
  -18.4697   21.3507  -26.5835 C   0  0  0  0  0  0
  -21.1564   15.3322  -23.0818 C   0  0  0  0  0  0
  -21.5908   14.1977  -20.9682 C   0  0  0  0  0  0
  -17.2107   22.0805  -26.4362 C   0  0  0  0  0  0
  -18.3509   23.4346  -24.8016 C   0  0  0  0  0  0
  -19.3556   14.1611  -22.0154 C   0  0  0  0  0  0
  -18.5462   20.2534  -27.5486 C   0  0  0  0  0  0
  -19.4058   19.2175  -27.4471 C   0  0  0  0  0  0
  -19.4518   18.1438  -28.4045 C   0  0  0  0  0  0
  -21.4497   15.3815  -25.6377 C   0  0  0  0  0  0
  -20.5671   13.3528  -27.9561 C   0  0  0  0  0  0
  -19.8121   15.6439  -28.4332 C   0  0  2  0  0  0
  -19.7788   14.5240  -27.3597 C   0  0  1  0  0  0
  -18.2487   24.6202  -23.8713 C   0  0  0  0  0  0
  -21.5477   16.1508  -24.3076 C   0  0  0  0  0  0
  -19.4453   22.7682  -24.8920 N   0  0  0  0  0  0
  -19.8494   14.9269  -23.0212 N   0  0  0  0  0  0
  -17.2655   23.1025  -25.5552 N   0  0  0  0  0  0
  -20.2848   13.8207  -21.0659 N   0  0  0  0  0  0
  -19.7624   16.9832  -27.8265 N   0  0  0  0  0  0
  -20.2304   14.9476  -26.0177 N   0  0  0  0  0  0
  -22.3319   13.8256  -20.0645 O   0  0  0  0  0  0
  -16.1577   21.8235  -27.0127 O   0  0  0  0  0  0
  -18.1826   13.8209  -22.0017 O   0  0  0  0  0  0
  -19.2108   18.2661  -29.6017 O   0  0  0  0  0  0
  -22.4474   15.2715  -26.3417 O   0  0  0  0  0  0
  -24.0208   13.7792  -31.1983 H   0  0  0  0  0  0
  -23.3342   16.1135  -31.6322 H   0  0  0  0  0  0
  -22.8344   12.4207  -29.5145 H   0  0  0  0  0  0
  -21.4292   17.0888  -30.4175 H   0  0  0  0  0  0
  -23.0212   15.4211  -22.0749 H   0  0  0  0  0  0
  -20.4515   21.2262  -25.8351 H   0  0  0  0  0  0
  -17.8724   20.2769  -28.3993 H   0  0  0  0  0  0
  -20.0863   19.1357  -26.6117 H   0  0  0  0  0  0
  -19.8908   12.6794  -28.4815 H   0  0  0  0  0  0
  -21.0804   12.7591  -27.2020 H   0  0  0  0  0  0
  -18.9567   15.5038  -29.1013 H   0  0  0  0  0  0
  -18.7446   14.2008  -27.2359 H   0  0  0  0  0  0
  -18.7951   25.4740  -24.2755 H   0  0  0  0  0  0
  -18.6719   24.3810  -22.8936 H   0  0  0  0  0  0
  -17.2120   24.9241  -23.7062 H   0  0  0  0  0  0
  -20.8771   17.0076  -24.3801 H   0  0  0  0  0  0
  -22.5506   16.5592  -24.1860 H   0  0  0  0  0  0
  -19.1653   15.2030  -23.7092 H   0  0  0  0  0  0
  -16.4055   23.6076  -25.4230 H   0  0  0  0  0  0
  -19.9546   13.2229  -20.3238 H   0  0  0  0  0  0
  -20.0162   17.0124  -26.8521 H   0  0  0  0  0  0
  -19.4799   15.0368  -25.3538 H   0  0  0  0  0  0
  1  2  1  0  0  0
  1  3  2  0  0  0
  1 35  1  0  0  0
  2  4  2  0  0  0
  2 36  1  0  0  0
  3  5  1  0  0  0
  3 37  1  0  0  0
  4  6  1  0  0  0
  4 38  1  0  0  0
  5  6  2  0  0  0
  5 19  1  0  0  0
  6 20  1  0  0  0
  7 10  2  0  0  0
  7 11  1  0  0  0
  7 39  1  0  0  0
  8  9  2  0  0  0
  8 24  1  0  0  0
  8 40  1  0  0  0
  9 12  1  0  0  0
  9 15  1  0  0  0
 10 23  1  0  0  0
 10 25  1  0  0  0
 11 27  1  0  0  0
 11 30  2  0  0  0
 12 26  1  0  0  0
 12 31  2  0  0  0
 13 22  1  0  0  0
 13 24  2  0  0  0
 13 26  1  0  0  0
 14 25  1  0  0  0
 14 27  1  0  0  0
 14 32  2  0  0  0
 15 16  2  0  0  0
 15 41  1  0  0  0
 16 17  1  0  0  0
 16 42  1  0  0  0
 17 28  1  0  0  0
 17 33  2  0  0  0
 18 23  1  0  0  0
 18 29  1  0  0  0
 18 34  2  0  0  0
 19 21  1  0  0  0
 19 43  1  0  0  0
 19 44  1  0  0  0
 20 21  1  0  0  0
 20 28  1  0  0  0
 20 45  1  0  0  0
 21 29  1  0  0  0
 21 46  1  0  0  0
 22 47  1  0  0  0
 22 48  1  0  0  0
 22 49  1  0  0  0
 23 50  1  0  0  0
 23 51  1  0  0  0
 25 52  1  0  0  0
 26 53  1  0  0  0
 27 54  1  0  0  0
 28 55  1  0  0  0
 29 56  1  0  0  0
M  END
> <s_i_glide_gridfile>
Cov2_glide-grid_1

> <i_i_glide_lignum>
30

> <i_i_glide_rotatable_bonds>
8

> <r_i_docking_score>
-9.00107

> <r_i_glide_ligand_efficiency>
-0.264737

> <r_i_glide_ligand_efficiency_sa>
-0.857647

> <r_i_glide_ligand_efficiency_ln>
-1.98859

> <r_i_glide_gscore>
-9.00107

> <r_i_glide_lipo>
-3.74414

> <r_i_glide_hbond>
-0.510922

> <r_i_glide_metal>
-0

> <r_i_glide_rewards>
-1.18973

> <r_i_glide_evdw>
-59.1241

> <r_i_glide_ecoul>
-8.11493

> <r_i_glide_erotb>
0.659328

> <r_i_glide_esite>
-0.0421568

> <r_i_glide_emodel>
-100.28

> <r_i_glide_energy>
-67.2391

> <r_i_glide_einternal>
7.31716

> <i_i_glide_confnum>
165

> <i_i_glide_posenum>
322

> <r_i_glide_eff_state_penalty>
0

$$$$
22
                    3D
 Structure written by MMmdl.
 55 58  0  0  1  0            999 V2000
  -19.9297   13.5426  -29.2375 C   0  0  0  0  0  0
  -19.0438   14.6124  -29.1999 C   0  0  0  0  0  0
  -21.1916   13.6519  -28.6632 C   0  0  0  0  0  0
  -19.4051   15.8145  -28.5995 C   0  0  0  0  0  0
  -22.8262   14.9809  -27.3780 C   0  0  0  0  0  0
  -23.1567   16.1510  -26.7047 C   0  0  0  0  0  0
  -21.0275   17.1322  -27.2714 C   0  0  0  0  0  0
  -20.9182   15.3107  -21.6277 C   0  0  0  0  0  0
  -22.8045   16.1594  -20.4024 C   0  0  0  0  0  0
  -22.1533   13.9530  -20.0808 C   0  0  0  0  0  0
  -21.5711   14.8493  -28.0066 C   0  0  0  0  0  0
  -20.6610   15.9488  -27.9648 C   0  0  0  0  0  0
  -22.2573   17.2183  -26.6147 C   0  0  0  0  0  0
  -21.7815   16.3728  -21.3359 C   0  0  0  0  0  0
  -21.1087   14.0823  -20.9985 C   0  0  0  0  0  0
  -19.4201   22.5136  -25.1226 C   0  0  0  0  0  0
  -17.8754   21.7180  -26.8050 C   0  0  0  0  0  0
  -18.4326   23.3148  -24.6768 C   0  0  0  0  0  0
  -19.1379   21.6666  -26.2963 C   0  0  0  0  0  0
  -16.7874   22.4548  -26.1729 C   0  0  0  0  0  0
  -20.1668   20.8640  -26.9459 C   0  0  0  0  0  0
  -22.4111   17.5339  -23.4862 C   0  0  0  0  0  0
  -21.7049   17.6729  -22.1285 C   0  0  0  0  0  0
  -22.4261   19.8264  -26.5174 C   0  0  0  0  0  0
  -22.6481   18.4631  -25.8008 C   0  0  2  0  0  0
  -22.9973   14.9710  -19.7753 N   0  0  0  0  0  0
  -17.1698   23.3216  -25.2002 N   0  0  0  0  0  0
  -21.1958   20.5351  -26.1468 N   0  0  0  0  0  0
  -22.1297   18.4530  -24.4212 N   0  0  0  0  0  0
  -15.6107   22.2211  -26.4016 O   0  0  0  0  0  0
  -20.1106   20.5251  -28.1292 O   0  0  0  0  0  0
  -23.2106   16.6213  -23.6796 O   0  0  0  0  0  0
  -20.2989   13.0210  -21.2911 O   0  0  0  0  0  0
  -19.6374   12.6211  -29.7158 H   0  0  0  0  0  0
  -18.0531   14.5121  -29.6151 H   0  0  0  0  0  0
  -21.8796   12.8196  -28.6997 H   0  0  0  0  0  0
  -18.7073   16.6399  -28.5803 H   0  0  0  0  0  0
  -23.5251   14.1590  -27.4104 H   0  0  0  0  0  0
  -24.1197   16.2080  -26.2170 H   0  0  0  0  0  0
  -20.3226   17.9490  -27.2233 H   0  0  0  0  0  0
  -20.1314   15.4263  -22.3607 H   0  0  0  0  0  0
  -23.5162   16.9376  -20.1702 H   0  0  0  0  0  0
  -22.3350   13.0206  -19.5693 H   0  0  0  0  0  0
  -20.3761   22.5246  -24.6203 H   0  0  0  0  0  0
  -17.6120   21.1480  -27.6848 H   0  0  0  0  0  0
  -18.5059   23.9274  -23.7862 H   0  0  0  0  0  0
  -22.1636   18.4868  -21.5653 H   0  0  0  0  0  0
  -20.6579   17.9359  -22.2909 H   0  0  0  0  0  0
  -22.5164   19.7018  -27.5994 H   0  0  0  0  0  0
  -23.2419   20.4985  -26.2479 H   0  0  0  0  0  0
  -23.7362   18.4110  -25.7073 H   0  0  0  0  0  0
  -16.4105   23.7659  -24.6979 H   0  0  0  0  0  0
  -21.1536   20.8721  -25.1981 H   0  0  0  0  0  0
  -21.4815   19.1875  -24.1828 H   0  0  0  0  0  0
  -20.5680   12.2338  -20.7975 H   0  0  0  0  0  0
  1  2  1  0  0  0
  1  3  2  0  0  0
  1 34  1  0  0  0
  2  4  2  0  0  0
  2 35  1  0  0  0
  3 11  1  0  0  0
  3 36  1  0  0  0
  4 12  1  0  0  0
  4 37  1  0  0  0
  5  6  2  0  0  0
  5 11  1  0  0  0
  5 38  1  0  0  0
  6 13  1  0  0  0
  6 39  1  0  0  0
  7 12  1  0  0  0
  7 13  2  0  0  0
  7 40  1  0  0  0
  8 14  1  0  0  0
  8 15  2  0  0  0
  8 41  1  0  0  0
  9 14  2  0  0  0
  9 26  1  0  0  0
  9 42  1  0  0  0
 10 15  1  0  0  0
 10 26  2  0  0  0
 10 43  1  0  0  0
 11 12  2  0  0  0
 13 25  1  0  0  0
 14 23  1  0  0  0
 15 33  1  0  0  0
 16 18  2  0  0  0
 16 19  1  0  0  0
 16 44  1  0  0  0
 17 19  2  0  0  0
 17 20  1  0  0  0
 17 45  1  0  0  0
 18 27  1  0  0  0
 18 46  1  0  0  0
 19 21  1  0  0  0
 20 27  1  0  0  0
 20 30  2  0  0  0
 21 28  1  0  0  0
 21 31  2  0  0  0
 22 23  1  0  0  0
 22 29  1  0  0  0
 22 32  2  0  0  0
 23 47  1  0  0  0
 23 48  1  0  0  0
 24 25  1  0  0  0
 24 28  1  0  0  0
 24 49  1  0  0  0
 24 50  1  0  0  0
 25 29  1  0  0  0
 25 51  1  0  0  0
 27 52  1  0  0  0
 28 53  1  0  0  0
 29 54  1  0  0  0
 33 55  1  0  0  0
M  END
> <s_i_glide_gridfile>
Cov2_glide-grid_1

> <i_i_glide_lignum>
37

> <i_i_glide_rotatable_bonds>
10

> <r_i_docking_score>
-8.99326

> <r_i_glide_ligand_efficiency>
-0.272523

> <r_i_glide_ligand_efficiency_sa>
-0.874127

> <r_i_glide_ligand_efficiency_ln>
-2.00005

> <r_i_glide_gscore>
-8.99326

> <r_i_glide_lipo>
-3.35265

> <r_i_glide_hbond>
-0.897185

> <r_i_glide_metal>
-0

> <r_i_glide_rewards>
-0.43162

> <r_i_glide_evdw>
-43.1225

> <r_i_glide_ecoul>
-18.5933

> <r_i_glide_erotb>
0.714514

> <r_i_glide_esite>
-0.081201

> <r_i_glide_emodel>
-90.5836

> <r_i_glide_energy>
-61.7158

> <r_i_glide_einternal>
8.78833

> <i_i_glide_confnum>
147

> <i_i_glide_posenum>
145

> <r_i_glide_eff_state_penalty>
0

$$$$
1
                    3D
 Structure written by MMmdl.
 60 63  0  0  1  0            999 V2000
  -21.6191   13.1920  -29.4505 C   0  0  0  0  0  0
  -20.2582   13.4211  -29.2826 C   0  0  0  0  0  0
  -22.5478   13.8491  -28.6485 C   0  0  0  0  0  0
  -19.7963   14.2922  -28.2998 C   0  0  0  0  0  0
  -23.0275   15.4574  -26.8344 C   0  0  0  0  0  0
  -22.5740   16.3496  -25.8724 C   0  0  0  0  0  0
  -20.2798   15.8871  -26.4635 C   0  0  0  0  0  0
  -22.1113   14.7548  -27.6478 C   0  0  0  0  0  0
  -20.7130   14.9786  -27.4646 C   0  0  0  0  0  0
  -21.2102   16.5688  -25.6641 C   0  0  0  0  0  0
  -20.9798   19.6380  -31.3008 C   0  0  0  0  0  0
  -23.2249   15.7248  -19.5188 C   0  0  0  0  0  0
  -24.1273   13.6447  -19.3030 C   0  0  0  0  0  0
  -20.6157   20.3815  -30.2249 C   0  0  0  0  0  0
  -22.2831   15.3310  -20.4136 C   0  0  0  0  0  0
  -20.9747   21.8014  -30.2619 C   0  0  0  0  0  0
  -22.2528   13.9249  -20.8013 C   0  0  0  0  0  0
  -21.8878   21.3963  -32.4392 C   0  0  0  0  0  0
  -19.9835   19.7905  -29.0466 C   0  0  0  0  0  0
  -19.2690   20.4704  -28.1184 C   0  0  0  0  0  0
  -18.7918   19.9087  -26.8863 C   0  0  0  0  0  0
  -21.6744   16.7561  -22.4587 C   0  0  0  0  0  0
  -22.6013   22.0151  -33.6175 C   0  0  0  0  0  0
  -21.2628   16.2806  -21.0559 C   0  0  0  0  0  0
  -19.5227   18.4467  -24.9978 C   0  0  0  0  0  0
  -20.7800   17.6267  -24.6258 C   0  0  2  0  0  0
  -24.1428   14.8833  -18.9552 N   0  0  0  0  0  0
  -21.6137   20.1410  -32.4019 N   0  0  0  0  0  0
  -23.2107   13.1810  -20.2008 N   0  0  0  0  0  0
  -21.5671   22.2068  -31.4002 N   0  0  0  0  0  0
  -19.6684   19.0832  -26.2985 N   0  0  0  0  0  0
  -20.6607   17.1104  -23.2626 N   0  0  0  0  0  0
  -20.8134   22.6210  -29.3698 O   0  0  0  0  0  0
  -21.4659   13.4212  -21.5956 O   0  0  0  0  0  0
  -17.7088   20.2235  -26.4011 O   0  0  0  0  0  0
  -22.8623   16.8287  -22.7845 O   0  0  0  0  0  0
  -21.9543   12.5093  -30.2174 H   0  0  0  0  0  0
  -19.5553   12.9138  -29.9240 H   0  0  0  0  0  0
  -23.6077   13.6793  -28.7915 H   0  0  0  0  0  0
  -18.7354   14.4549  -28.1804 H   0  0  0  0  0  0
  -24.0881   15.3125  -26.9761 H   0  0  0  0  0  0
  -23.3039   16.8859  -25.2836 H   0  0  0  0  0  0
  -19.2129   16.0462  -26.3495 H   0  0  0  0  0  0
  -20.7698   18.5769  -31.3197 H   0  0  0  0  0  0
  -23.2780   16.7607  -19.2166 H   0  0  0  0  0  0
  -24.8340   12.9295  -18.8909 H   0  0  0  0  0  0
  -20.1272   18.7245  -28.8996 H   0  0  0  0  0  0
  -19.0135   21.5143  -28.2296 H   0  0  0  0  0  0
  -23.6076   21.6059  -33.7151 H   0  0  0  0  0  0
  -22.6901   23.0972  -33.5232 H   0  0  0  0  0  0
  -22.0580   21.8212  -34.5400 H   0  0  0  0  0  0
  -20.2778   15.8083  -21.1014 H   0  0  0  0  0  0
  -21.1529   17.1763  -20.4446 H   0  0  0  0  0  0
  -18.6329   17.8210  -24.9780 H   0  0  0  0  0  0
  -19.3592   19.2230  -24.2463 H   0  0  0  0  0  0
  -21.5752   18.3775  -24.6020 H   0  0  0  0  0  0
  -23.1722   12.2055  -20.4419 H   0  0  0  0  0  0
  -21.8177   23.1793  -31.4204 H   0  0  0  0  0  0
  -20.5302   18.8961  -26.7882 H   0  0  0  0  0  0
  -19.7198   17.0571  -22.8905 H   0  0  0  0  0  0
  1  2  1  0  0  0
  1  3  2  0  0  0
  1 37  1  0  0  0
  2  4  2  0  0  0
  2 38  1  0  0  0
  3  8  1  0  0  0
  3 39  1  0  0  0
  4  9  1  0  0  0
  4 40  1  0  0  0
  5  6  2  0  0  0
  5  8  1  0  0  0
  5 41  1  0  0  0
  6 10  1  0  0  0
  6 42  1  0  0  0
  7  9  1  0  0  0
  7 10  2  0  0  0
  7 43  1  0  0  0
  8  9  2  0  0  0
 10 26  1  0  0  0
 11 14  2  0  0  0
 11 28  1  0  0  0
 11 44  1  0  0  0
 12 15  2  0  0  0
 12 27  1  0  0  0
 12 45  1  0  0  0
 13 27  2  0  0  0
 13 29  1  0  0  0
 13 46  1  0  0  0
 14 16  1  0  0  0
 14 19  1  0  0  0
 15 17  1  0  0  0
 15 24  1  0  0  0
 16 30  1  0  0  0
 16 33  2  0  0  0
 17 29  1  0  0  0
 17 34  2  0  0  0
 18 23  1  0  0  0
 18 28  2  0  0  0
 18 30  1  0  0  0
 19 20  2  0  0  0
 19 47  1  0  0  0
 20 21  1  0  0  0
 20 48  1  0  0  0
 21 31  1  0  0  0
 21 35  2  0  0  0
 22 24  1  0  0  0
 22 32  1  0  0  0
 22 36  2  0  0  0
 23 49  1  0  0  0
 23 50  1  0  0  0
 23 51  1  0  0  0
 24 52  1  0  0  0
 24 53  1  0  0  0
 25 26  1  0  0  0
 25 31  1  0  0  0
 25 54  1  0  0  0
 25 55  1  0  0  0
 26 32  1  0  0  0
 26 56  1  0  0  0
 29 57  1  0  0  0
 30 58  1  0  0  0
 31 59  1  0  0  0
 32 60  1  0  0  0
M  END
> <s_i_glide_gridfile>
Cov2_glide-grid_1

> <i_i_glide_lignum>
45

> <i_i_glide_rotatable_bonds>
10

> <r_i_docking_score>
-8.93631

> <r_i_glide_ligand_efficiency>
-0.248231

> <r_i_glide_ligand_efficiency_sa>
-0.81964

> <r_i_glide_ligand_efficiency_ln>
-1.94966

> <r_i_glide_gscore>
-8.93631

> <r_i_glide_lipo>
-3.39504

> <r_i_glide_hbond>
-0.958976

> <r_i_glide_metal>
-0

> <r_i_glide_rewards>
-0.745771

> <r_i_glide_evdw>
-48.0378

> <r_i_glide_ecoul>
-13.9649

> <r_i_glide_erotb>
0.692097

> <r_i_glide_esite>
-0.0319861

> <r_i_glide_emodel>
-89.963

> <r_i_glide_energy>
-62.0027

> <r_i_glide_einternal>
11.4172

> <i_i_glide_confnum>
98

> <i_i_glide_posenum>
334

> <r_i_glide_eff_state_penalty>
0

$$$$
26
                    3D
 Structure written by MMmdl.
 56 59  0  0  1  0            999 V2000
  -23.2106   14.2815  -30.5776 C   0  0  0  0  0  0
  -22.6883   15.5147  -30.9678 C   0  0  0  0  0  0
  -22.6829   13.6161  -29.4686 C   0  0  0  0  0  0
  -21.6108   16.0696  -30.2762 C   0  0  0  0  0  0
  -21.6230   14.1852  -28.7569 C   0  0  0  0  0  0
  -21.0594   15.3929  -29.1857 C   0  0  0  0  0  0
  -20.8619   13.9991  -20.4134 C   0  0  0  0  0  0
  -22.9310   15.1606  -20.7719 C   0  0  0  0  0  0
  -16.7483   21.2791  -27.0554 C   0  0  0  0  0  0
  -20.3980   14.5945  -21.5285 C   0  0  0  0  0  0
  -16.5817   23.0211  -25.6017 C   0  0  0  0  0  0
  -18.0359   20.9818  -26.7506 C   0  0  0  0  0  0
  -22.2303   14.2829  -20.0109 C   0  0  0  0  0  0
  -22.4107   15.8203  -21.9702 C   0  0  0  0  0  0
  -18.6933   21.8617  -25.7693 C   0  0  0  0  0  0
  -18.6686   19.7986  -27.3507 C   0  0  0  0  0  0
  -19.8622   19.2580  -27.0149 C   0  0  0  0  0  0
  -20.4195   18.0376  -27.5497 C   0  0  0  0  0  0
  -20.3380   14.9738  -24.6744 C   0  0  0  0  0  0
  -20.8290   13.6071  -27.6050 C   0  0  0  0  0  0
  -19.8175   15.7086  -28.3633 C   0  0  2  0  0  0
  -19.9129   14.7521  -27.1386 C   0  0  1  0  0  0
  -22.8413   13.6120  -18.7963 C   0  0  0  0  0  0
  -20.5934   16.0343  -23.5831 C   0  0  0  0  0  0
  -16.0112   22.2748  -26.4830 N   0  0  0  0  0  0
  -17.8870   22.8210  -25.2612 N   0  0  0  0  0  0
  -21.1277   15.4492  -22.3328 N   0  0  0  0  0  0
  -19.5440   17.1291  -28.0349 N   0  0  0  0  0  0
  -20.4170   15.4219  -25.9330 N   0  0  0  0  0  0
  -23.1268   16.6211  -22.5807 O   0  0  0  0  0  0
  -19.8592   21.8202  -25.3962 O   0  0  0  0  0  0
  -21.6208   17.8056  -27.4377 O   0  0  0  0  0  0
  -20.0107   13.8215  -24.3968 O   0  0  0  0  0  0
  -24.0101   13.8413  -31.1577 H   0  0  0  0  0  0
  -23.0921   16.0213  -31.8319 H   0  0  0  0  0  0
  -23.0874   12.6571  -29.1801 H   0  0  0  0  0  0
  -21.1854   17.0019  -30.6180 H   0  0  0  0  0  0
  -20.2373   13.3346  -19.8328 H   0  0  0  0  0  0
  -23.9496   15.3973  -20.5024 H   0  0  0  0  0  0
  -16.2130   20.6637  -27.7666 H   0  0  0  0  0  0
  -19.3859   14.4572  -21.8878 H   0  0  0  0  0  0
  -16.0465   23.8211  -25.0954 H   0  0  0  0  0  0
  -18.0991   19.2980  -28.1244 H   0  0  0  0  0  0
  -20.5057   19.7122  -26.2787 H   0  0  0  0  0  0
  -20.2161   12.7923  -27.9873 H   0  0  0  0  0  0
  -21.4364   13.1891  -26.8015 H   0  0  0  0  0  0
  -18.9780   15.3619  -28.9699 H   0  0  0  0  0  0
  -18.9186   14.3527  -26.9236 H   0  0  0  0  0  0
  -23.8695   13.9235  -18.6146 H   0  0  0  0  0  0
  -22.8113   12.5302  -18.9206 H   0  0  0  0  0  0
  -22.2420   13.8232  -17.9113 H   0  0  0  0  0  0
  -19.6140   16.4482  -23.3383 H   0  0  0  0  0  0
  -21.1770   16.8749  -23.9629 H   0  0  0  0  0  0
  -18.3123   23.4005  -24.5546 H   0  0  0  0  0  0
  -18.5868   17.4188  -28.1610 H   0  0  0  0  0  0
  -20.8153   16.3372  -26.0964 H   0  0  0  0  0  0
  1  2  1  0  0  0
  1  3  2  0  0  0
  1 34  1  0  0  0
  2  4  2  0  0  0
  2 35  1  0  0  0
  3  5  1  0  0  0
  3 36  1  0  0  0
  4  6  1  0  0  0
  4 37  1  0  0  0
  5  6  2  0  0  0
  5 20  1  0  0  0
  6 21  1  0  0  0
  7 10  2  0  0  0
  7 13  1  0  0  0
  7 38  1  0  0  0
  8 13  2  0  0  0
  8 14  1  0  0  0
  8 39  1  0  0  0
  9 12  2  0  0  0
  9 25  1  0  0  0
  9 40  1  0  0  0
 10 27  1  0  0  0
 10 41  1  0  0  0
 11 25  2  0  0  0
 11 26  1  0  0  0
 11 42  1  0  0  0
 12 15  1  0  0  0
 12 16  1  0  0  0
 13 23  1  0  0  0
 14 27  1  0  0  0
 14 30  2  0  0  0
 15 26  1  0  0  0
 15 31  2  0  0  0
 16 17  2  0  0  0
 16 43  1  0  0  0
 17 18  1  0  0  0
 17 44  1  0  0  0
 18 28  1  0  0  0
 18 32  2  0  0  0
 19 24  1  0  0  0
 19 29  1  0  0  0
 19 33  2  0  0  0
 20 22  1  0  0  0
 20 45  1  0  0  0
 20 46  1  0  0  0
 21 22  1  0  0  0
 21 28  1  0  0  0
 21 47  1  0  0  0
 22 29  1  0  0  0
 22 48  1  0  0  0
 23 49  1  0  0  0
 23 50  1  0  0  0
 23 51  1  0  0  0
 24 27  1  0  0  0
 24 52  1  0  0  0
 24 53  1  0  0  0
 26 54  1  0  0  0
 28 55  1  0  0  0
 29 56  1  0  0  0
M  END
> <s_i_glide_gridfile>
Cov2_glide-grid_1

> <i_i_glide_lignum>
27

> <i_i_glide_rotatable_bonds>
8

> <r_i_docking_score>
-8.78981

> <r_i_glide_ligand_efficiency>
-0.266358

> <r_i_glide_ligand_efficiency_sa>
-0.854352

> <r_i_glide_ligand_efficiency_ln>
-1.95481

> <r_i_glide_gscore>
-8.78981

> <r_i_glide_lipo>
-3.98899

> <r_i_glide_hbond>
-0.608

> <r_i_glide_metal>
-0

> <r_i_glide_rewards>
-0.994208

> <r_i_glide_evdw>
-52.2056

> <r_i_glide_ecoul>
-8.43508

> <r_i_glide_erotb>
0.705787

> <r_i_glide_esite>
-0.0288626

> <r_i_glide_emodel>
-86.7427

> <r_i_glide_energy>
-60.6407

> <r_i_glide_einternal>
11.7844

> <i_i_glide_confnum>
41

> <i_i_glide_posenum>
163

> <r_i_glide_eff_state_penalty>
0

$$$$
45
                    3D
 Structure written by MMmdl.
 55 58  0  0  1  0            999 V2000
  -20.6565   13.0424  -29.6017 C   0  0  0  0  0  0
  -21.9762   12.8708  -29.2024 C   0  0  0  0  0  0
  -19.9321   14.1602  -29.1953 C   0  0  0  0  0  0
  -22.5915   13.8067  -28.3767 C   0  0  0  0  0  0
  -19.8323   16.2788  -27.9187 C   0  0  0  0  0  0
  -20.4420   17.1963  -27.0683 C   0  0  0  0  0  0
  -22.4885   15.9235  -27.1008 C   0  0  0  0  0  0
  -20.5348   15.1342  -28.3587 C   0  0  0  0  0  0
  -21.8871   14.9532  -27.9407 C   0  0  0  0  0  0
  -21.7698   17.0397  -26.6609 C   0  0  0  0  0  0
  -18.2464   21.2857  -28.0016 C   0  0  0  0  0  0
  -17.0449   21.8217  -27.6930 C   0  0  0  0  0  0
  -20.2551   13.4203  -21.3133 C   0  0  0  0  0  0
  -21.3880   13.8922  -20.7587 C   0  0  0  0  0  0
  -19.0481   21.9406  -25.8589 C   0  0  0  0  0  0
  -19.3265   21.2914  -27.0200 C   0  0  0  0  0  0
  -16.7461   22.3675  -26.3769 C   0  0  0  0  0  0
  -19.3250   14.2316  -22.0527 C   0  0  0  0  0  0
  -21.8185   15.2641  -20.8960 C   0  0  0  0  0  0
  -20.5863   20.6473  -27.3375 C   0  0  0  0  0  0
  -22.2063   17.3342  -23.3615 C   0  0  0  0  0  0
  -21.3364   17.3968  -22.0969 C   0  0  0  0  0  0
  -22.5600   19.4937  -26.3216 C   0  0  0  0  0  0
  -22.4424   18.0631  -25.7327 C   0  0  2  0  0  0
  -17.8255   22.4880  -25.5587 N   0  0  0  0  0  0
  -19.7832   15.4891  -22.2683 N   0  0  0  0  0  0
  -20.9972   16.0190  -21.7059 N   0  0  0  0  0  0
  -21.3143   20.2659  -26.2761 N   0  0  0  0  0  0
  -21.8148   18.0781  -24.4046 N   0  0  0  0  0  0
  -15.6107   22.6211  -26.0017 O   0  0  0  0  0  0
  -18.2133   13.8515  -22.4018 O   0  0  0  0  0  0
  -22.8320   15.6815  -20.3372 O   0  0  0  0  0  0
  -20.9405   20.4375  -28.4966 O   0  0  0  0  0  0
  -23.2102   16.6213  -23.3908 O   0  0  0  0  0  0
  -20.1952   12.3037  -30.2419 H   0  0  0  0  0  0
  -22.5250   12.0006  -29.5315 H   0  0  0  0  0  0
  -18.9094   14.2954  -29.5169 H   0  0  0  0  0  0
  -23.6106   13.6562  -28.0651 H   0  0  0  0  0  0
  -18.8101   16.4283  -28.2369 H   0  0  0  0  0  0
  -19.8646   18.0376  -26.7206 H   0  0  0  0  0  0
  -23.5157   15.7809  -26.7951 H   0  0  0  0  0  0
  -18.4116   20.8783  -28.9885 H   0  0  0  0  0  0
  -16.2542   21.8212  -28.4290 H   0  0  0  0  0  0
  -20.0108   12.3782  -21.2009 H   0  0  0  0  0  0
  -22.0330   13.2209  -20.2099 H   0  0  0  0  0  0
  -19.7247   22.0395  -25.0200 H   0  0  0  0  0  0
  -20.4340   17.9926  -22.2507 H   0  0  0  0  0  0
  -21.9056   17.9029  -21.3154 H   0  0  0  0  0  0
  -22.9756   19.4389  -27.3288 H   0  0  0  0  0  0
  -23.2974   20.0549  -25.7428 H   0  0  0  0  0  0
  -23.4837   17.7468  -25.6180 H   0  0  0  0  0  0
  -17.6113   22.8661  -24.6445 H   0  0  0  0  0  0
  -19.1965   16.2077  -22.6698 H   0  0  0  0  0  0
  -20.9720   20.4997  -25.3600 H   0  0  0  0  0  0
  -20.9511   18.5930  -24.3233 H   0  0  0  0  0  0
  1  2  1  0  0  0
  1  3  2  0  0  0
  1 35  1  0  0  0
  2  4  2  0  0  0
  2 36  1  0  0  0
  3  8  1  0  0  0
  3 37  1  0  0  0
  4  9  1  0  0  0
  4 38  1  0  0  0
  5  6  2  0  0  0
  5  8  1  0  0  0
  5 39  1  0  0  0
  6 10  1  0  0  0
  6 40  1  0  0  0
  7  9  1  0  0  0
  7 10  2  0  0  0
  7 41  1  0  0  0
  8  9  2  0  0  0
 10 24  1  0  0  0
 11 12  2  0  0  0
 11 16  1  0  0  0
 11 42  1  0  0  0
 12 17  1  0  0  0
 12 43  1  0  0  0
 13 14  2  0  0  0
 13 18  1  0  0  0
 13 44  1  0  0  0
 14 19  1  0  0  0
 14 45  1  0  0  0
 15 16  2  0  0  0
 15 25  1  0  0  0
 15 46  1  0  0  0
 16 20  1  0  0  0
 17 25  1  0  0  0
 17 30  2  0  0  0
 18 26  1  0  0  0
 18 31  2  0  0  0
 19 27  1  0  0  0
 19 32  2  0  0  0
 20 28  1  0  0  0
 20 33  2  0  0  0
 21 22  1  0  0  0
 21 29  1  0  0  0
 21 34  2  0  0  0
 22 27  1  0  0  0
 22 47  1  0  0  0
 22 48  1  0  0  0
 23 24  1  0  0  0
 23 28  1  0  0  0
 23 49  1  0  0  0
 23 50  1  0  0  0
 24 29  1  0  0  0
 24 51  1  0  0  0
 25 52  1  0  0  0
 26 27  1  0  0  0
 26 53  1  0  0  0
 28 54  1  0  0  0
 29 55  1  0  0  0
M  END
> <s_i_glide_gridfile>
Cov2_glide-grid_1

> <i_i_glide_lignum>
11

> <i_i_glide_rotatable_bonds>
9

> <r_i_docking_score>
-8.72554

> <r_i_glide_ligand_efficiency>
-0.256634

> <r_i_glide_ligand_efficiency_sa>
-0.831393

> <r_i_glide_ligand_efficiency_ln>
-1.92772

> <r_i_glide_gscore>
-8.72554

> <r_i_glide_lipo>
-3.9263

> <r_i_glide_hbond>
-0.806245

> <r_i_glide_metal>
-0

> <r_i_glide_rewards>
-0.39683

> <r_i_glide_evdw>
-52.281

> <r_i_glide_ecoul>
-10.2205

> <r_i_glide_erotb>
0.571888

> <r_i_glide_esite>
-0.0209357

> <r_i_glide_emodel>
-88.5892

> <r_i_glide_energy>
-62.5014

> <r_i_glide_einternal>
11.6712

> <i_i_glide_confnum>
60

> <i_i_glide_posenum>
286

> <r_i_glide_eff_state_penalty>
0

$$$$
63
                    3D
 Structure written by MMmdl.
 53 56  0  0  1  0            999 V2000
  -23.2106   14.3855  -30.6575 C   0  0  0  0  0  0
  -22.7117   15.6309  -31.0423 C   0  0  0  0  0  0
  -22.6387   13.6989  -29.5866 C   0  0  0  0  0  0
  -21.6203   16.1851  -30.3720 C   0  0  0  0  0  0
  -21.5710   14.2686  -28.8933 C   0  0  0  0  0  0
  -21.0380   15.4946  -29.3073 C   0  0  0  0  0  0
  -16.7637   21.3401  -27.1189 C   0  0  0  0  0  0
  -16.5587   23.0209  -25.6017 C   0  0  0  0  0  0
  -18.0447   21.0363  -26.7947 C   0  0  0  0  0  0
  -20.9621   15.1801  -22.3323 C   0  0  0  0  0  0
  -20.2065   14.3357  -21.6012 C   0  0  0  0  0  0
  -18.6763   21.8753  -25.7618 C   0  0  0  0  0  0
  -22.1950   15.4214  -21.6016 C   0  0  0  0  0  0
  -18.6889   19.8789  -27.4221 C   0  0  0  0  0  0
  -19.8756   19.3287  -27.0843 C   0  0  0  0  0  0
  -20.4300   18.1248  -27.6529 C   0  0  0  0  0  0
  -20.3717   14.9705  -24.8406 C   0  0  0  0  0  0
  -20.7318   13.6782  -27.7829 C   0  0  0  0  0  0
  -19.7934   15.8189  -28.4958 C   0  0  2  0  0  0
  -19.8712   14.8526  -27.2835 C   0  0  1  0  0  0
  -18.7914   13.8127  -21.7646 C   0  0  0  0  0  0
  -20.7250   15.9064  -23.6676 C   0  0  0  0  0  0
  -16.0105   22.3094  -26.5240 N   0  0  0  0  0  0
  -17.8526   22.8062  -25.2303 N   0  0  0  0  0  0
  -20.9631   13.8912  -20.5279 N   0  0  0  0  0  0
  -19.5409   17.2337  -28.1438 N   0  0  0  0  0  0
  -20.4325   15.4835  -26.0763 N   0  0  0  0  0  0
  -19.8331   21.8170  -25.3630 O   0  0  0  0  0  0
  -23.0952   16.2197  -21.8751 O   0  0  0  0  0  0
  -21.6313   17.8846  -27.5569 O   0  0  0  0  0  0
  -20.0107   13.8167  -24.6480 O   0  0  0  0  0  0
  -22.1826   14.6186  -20.5407 O   0  0  0  0  0  0
  -24.0337   13.9483  -31.2009 H   0  0  0  0  0  0
  -23.1507   16.1538  -31.8816 H   0  0  0  0  0  0
  -23.0232   12.7275  -29.3100 H   0  0  0  0  0  0
  -21.2145   17.1282  -30.7051 H   0  0  0  0  0  0
  -16.2483   20.7485  -27.8636 H   0  0  0  0  0  0
  -16.0128   23.8085  -25.0872 H   0  0  0  0  0  0
  -18.1339   19.4055  -28.2225 H   0  0  0  0  0  0
  -20.5104   19.7577  -26.3262 H   0  0  0  0  0  0
  -20.0862   12.9114  -28.2142 H   0  0  0  0  0  0
  -21.2993   13.1847  -26.9940 H   0  0  0  0  0  0
  -18.9536   15.4913  -29.1121 H   0  0  0  0  0  0
  -18.8657   14.4925  -27.0548 H   0  0  0  0  0  0
  -18.5986   13.4211  -22.7584 H   0  0  0  0  0  0
  -18.0816   14.6205  -21.6009 H   0  0  0  0  0  0
  -18.5731   13.0212  -21.0494 H   0  0  0  0  0  0
  -19.8913   16.5960  -23.5296 H   0  0  0  0  0  0
  -21.5818   16.5211  -23.9532 H   0  0  0  0  0  0
  -18.2578   23.3569  -24.4900 H   0  0  0  0  0  0
  -21.2106   12.9205  -20.3550 H   0  0  0  0  0  0
  -18.5841   17.5345  -28.2533 H   0  0  0  0  0  0
  -20.8395   16.3994  -26.2141 H   0  0  0  0  0  0
  1  2  1  0  0  0
  1  3  2  0  0  0
  1 33  1  0  0  0
  2  4  2  0  0  0
  2 34  1  0  0  0
  3  5  1  0  0  0
  3 35  1  0  0  0
  4  6  1  0  0  0
  4 36  1  0  0  0
  5  6  2  0  0  0
  5 18  1  0  0  0
  6 19  1  0  0  0
  7  9  2  0  0  0
  7 23  1  0  0  0
  7 37  1  0  0  0
  8 23  2  0  0  0
  8 24  1  0  0  0
  8 38  1  0  0  0
  9 12  1  0  0  0
  9 14  1  0  0  0
 10 11  2  0  0  0
 10 13  1  0  0  0
 10 22  1  0  0  0
 11 21  1  0  0  0
 11 25  1  0  0  0
 12 24  1  0  0  0
 12 28  2  0  0  0
 13 29  2  0  0  0
 13 32  1  0  0  0
 14 15  2  0  0  0
 14 39  1  0  0  0
 15 16  1  0  0  0
 15 40  1  0  0  0
 16 26  1  0  0  0
 16 30  2  0  0  0
 17 22  1  0  0  0
 17 27  1  0  0  0
 17 31  2  0  0  0
 18 20  1  0  0  0
 18 41  1  0  0  0
 18 42  1  0  0  0
 19 20  1  0  0  0
 19 26  1  0  0  0
 19 43  1  0  0  0
 20 27  1  0  0  0
 20 44  1  0  0  0
 21 45  1  0  0  0
 21 46  1  0  0  0
 21 47  1  0  0  0
 22 48  1  0  0  0
 22 49  1  0  0  0
 24 50  1  0  0  0
 25 32  1  0  0  0
 25 51  1  0  0  0
 26 52  1  0  0  0
 27 53  1  0  0  0
M  END
> <s_i_glide_gridfile>
Cov2_glide-grid_1

> <i_i_glide_lignum>
67

> <i_i_glide_rotatable_bonds>
8

> <r_i_docking_score>
-8.70325

> <r_i_glide_ligand_efficiency>
-0.271977

> <r_i_glide_ligand_efficiency_sa>
-0.863472

> <r_i_glide_ligand_efficiency_ln>
-1.9489

> <r_i_glide_gscore>
-8.70325

> <r_i_glide_lipo>
-3.95193

> <r_i_glide_hbond>
-0.685596

> <r_i_glide_metal>
-0

> <r_i_glide_rewards>
-0.892791

> <r_i_glide_evdw>
-52.6254

> <r_i_glide_ecoul>
-8.29265

> <r_i_glide_erotb>
0.735594

> <r_i_glide_esite>
-0.0333611

> <r_i_glide_emodel>
-89.159

> <r_i_glide_energy>
-60.9181

> <r_i_glide_einternal>
9.52939

> <i_i_glide_confnum>
67

> <i_i_glide_posenum>
183

> <r_i_glide_eff_state_penalty>
0

$$$$
86
                    3D
 Structure written by MMmdl.
 59 62  0  0  1  0            999 V2000
  -26.7204   18.6571  -32.4287 C   0  0  0  0  0  0
  -26.2665   19.6457  -31.5686 C   0  0  0  0  0  0
  -26.0117   17.4667  -32.5354 C   0  0  0  0  0  0
  -25.1112   19.4340  -30.8227 C   0  0  0  0  0  0
  -24.8443   17.2386  -31.8004 C   0  0  0  0  0  0
  -24.3727   18.2412  -30.9194 C   0  0  0  0  0  0
  -17.6601   22.7714  -25.1210 C   0  0  0  0  0  0
  -18.8355   22.3473  -24.6100 C   0  0  0  0  0  0
  -22.3272   15.5206  -25.6049 C   0  0  0  0  0  0
  -21.8257   14.8955  -26.7044 C   0  0  0  0  0  0
  -17.0702   22.2024  -26.3114 C   0  0  0  0  0  0
  -19.6242   21.2830  -25.2016 C   0  0  0  0  0  0
  -20.5320   14.2202  -26.5429 C   0  0  0  0  0  0
  -20.5725   14.9957  -24.2585 C   0  0  0  0  0  0
  -22.5567   14.9326  -27.9738 C   0  0  0  0  0  0
  -22.2625   14.2712  -29.1162 C   0  0  0  0  0  0
  -23.0573   14.4163  -30.3102 C   0  0  0  0  0  0
  -20.5693   20.0188  -28.1537 C   0  0  0  0  0  0
  -24.1285   15.8975  -31.9534 C   0  0  0  0  0  0
  -22.2773   16.7868  -30.5869 C   0  0  0  0  0  0
  -23.1191   17.9799  -30.0543 C   0  0  1  0  0  0
  -19.8245   15.0305  -22.9489 C   0  0  0  0  0  0
  -19.6475   19.5582  -27.0080 C   0  0  0  0  0  0
  -22.2206   19.2274  -29.8374 C   0  0  0  0  0  0
  -21.7182   15.5623  -24.3821 N   0  0  0  0  0  0
  -20.0106   14.3261  -25.3033 N   0  0  0  0  0  0
  -17.7972   21.1859  -26.8403 N   0  0  0  0  0  0
  -19.0366   20.7052  -26.3054 N   0  0  0  0  0  0
  -23.1898   15.6601  -30.8491 N   0  0  0  0  0  0
  -21.2308   19.0306  -28.7772 N   0  0  0  0  0  0
  -16.0103   22.5690  -26.8016 O   0  0  0  0  0  0
  -20.7153   20.9490  -24.7399 O   0  0  0  0  0  0
  -19.9006   13.5952  -27.3867 O   0  0  0  0  0  0
  -23.6003   13.4218  -30.7886 O   0  0  0  0  0  0
  -20.6887   21.2087  -28.4586 O   0  0  0  0  0  0
  -27.6201   18.8106  -33.0081 H   0  0  0  0  0  0
  -26.8141   20.5706  -31.4677 H   0  0  0  0  0  0
  -26.3826   16.7004  -33.1997 H   0  0  0  0  0  0
  -24.8226   20.2151  -30.1389 H   0  0  0  0  0  0
  -17.1090   23.5523  -24.6123 H   0  0  0  0  0  0
  -19.2047   22.7984  -23.6985 H   0  0  0  0  0  0
  -23.2765   16.0332  -25.6663 H   0  0  0  0  0  0
  -23.4384   15.5658  -28.0020 H   0  0  0  0  0  0
  -21.4355   13.5877  -29.2164 H   0  0  0  0  0  0
  -23.5865   15.8873  -32.9001 H   0  0  0  0  0  0
  -24.8850   15.1127  -32.0014 H   0  0  0  0  0  0
  -21.4485   16.5244  -29.9279 H   0  0  0  0  0  0
  -21.8036   17.0588  -31.5325 H   0  0  0  0  0  0
  -23.5129   17.6921  -29.0783 H   0  0  0  0  0  0
  -20.2334   14.2974  -22.2499 H   0  0  0  0  0  0
  -18.7606   14.8161  -23.0797 H   0  0  0  0  0  0
  -19.8966   16.0176  -22.4835 H   0  0  0  0  0  0
  -20.2288   18.9448  -26.3159 H   0  0  0  0  0  0
  -18.8727   18.9014  -27.4059 H   0  0  0  0  0  0
  -21.7113   19.4902  -30.7672 H   0  0  0  0  0  0
  -22.8205   20.0955  -29.5656 H   0  0  0  0  0  0
  -19.1179   13.8714  -25.2014 H   0  0  0  0  0  0
  -17.5377   20.7117  -27.6920 H   0  0  0  0  0  0
  -21.0596   18.0800  -28.4894 H   0  0  0  0  0  0
  1  2  1  0  0  0
  1  3  2  0  0  0
  1 36  1  0  0  0
  2  4  2  0  0  0
  2 37  1  0  0  0
  3  5  1  0  0  0
  3 38  1  0  0  0
  4  6  1  0  0  0
  4 39  1  0  0  0
  5  6  2  0  0  0
  5 19  1  0  0  0
  6 21  1  0  0  0
  7  8  2  0  0  0
  7 11  1  0  0  0
  7 40  1  0  0  0
  8 12  1  0  0  0
  8 41  1  0  0  0
  9 10  2  0  0  0
  9 25  1  0  0  0
  9 42  1  0  0  0
 10 13  1  0  0  0
 10 15  1  0  0  0
 11 27  1  0  0  0
 11 31  2  0  0  0
 12 28  1  0  0  0
 12 32  2  0  0  0
 13 26  1  0  0  0
 13 33  2  0  0  0
 14 22  1  0  0  0
 14 25  2  0  0  0
 14 26  1  0  0  0
 15 16  2  0  0  0
 15 43  1  0  0  0
 16 17  1  0  0  0
 16 44  1  0  0  0
 17 29  1  0  0  0
 17 34  2  0  0  0
 18 23  1  0  0  0
 18 30  1  0  0  0
 18 35  2  0  0  0
 19 29  1  0  0  0
 19 45  1  0  0  0
 19 46  1  0  0  0
 20 21  1  0  0  0
 20 29  1  0  0  0
 20 47  1  0  0  0
 20 48  1  0  0  0
 21 24  1  0  0  0
 21 49  1  0  0  0
 22 50  1  0  0  0
 22 51  1  0  0  0
 22 52  1  0  0  0
 23 28  1  0  0  0
 23 53  1  0  0  0
 23 54  1  0  0  0
 24 30  1  0  0  0
 24 55  1  0  0  0
 24 56  1  0  0  0
 26 57  1  0  0  0
 27 28  1  0  0  0
 27 58  1  0  0  0
 30 59  1  0  0  0
M  END
> <s_i_glide_gridfile>
Cov2_glide-grid_1

> <i_i_glide_lignum>
99

> <i_i_glide_rotatable_bonds>
8

> <r_i_docking_score>
-8.68811

> <r_i_glide_ligand_efficiency>
-0.248232

> <r_i_glide_ligand_efficiency_sa>
-0.811983

> <r_i_glide_ligand_efficiency_ln>
-1.90723

> <r_i_glide_gscore>
-8.68811

> <r_i_glide_lipo>
-3.01666

> <r_i_glide_hbond>
-0.604137

> <r_i_glide_metal>
-0

> <r_i_glide_rewards>
-1.42826

> <r_i_glide_evdw>
-54.1932

> <r_i_glide_ecoul>
-10.3584

> <r_i_glide_erotb>
0.624349

> <r_i_glide_esite>
0

> <r_i_glide_emodel>
-95.4574

> <r_i_glide_energy>
-64.5515

> <r_i_glide_einternal>
7.07406

> <i_i_glide_confnum>
280

> <i_i_glide_posenum>
155

> <r_i_glide_eff_state_penalty>
0

$$$$
68
                    3D
 Structure written by MMmdl.
 56 59  0  0  1  0            999 V2000
  -23.4046   17.1769  -31.8230 C   0  0  0  0  0  0
  -23.6656   18.1001  -30.8103 C   0  0  0  0  0  0
  -22.6036   16.0640  -31.5642 C   0  0  0  0  0  0
  -23.1322   17.9103  -29.5349 C   0  0  0  0  0  0
  -22.0451   15.8842  -30.2961 C   0  0  0  0  0  0
  -22.3262   16.7942  -29.2743 C   0  0  0  0  0  0
  -22.2601   15.2871  -20.4038 C   0  0  0  0  0  0
  -21.6877   14.0860  -20.6332 C   0  0  0  0  0  0
  -19.3837   21.9953  -25.3944 C   0  0  0  0  0  0
  -18.0125   23.6944  -24.7494 C   0  0  0  0  0  0
  -18.4951   21.4616  -26.2773 C   0  0  0  0  0  0
  -22.0483   16.4370  -21.2544 C   0  0  0  0  0  0
  -20.8103   13.8248  -21.7574 C   0  0  0  0  0  0
  -17.2059   22.1437  -26.4066 C   0  0  0  0  0  0
  -18.7532   20.2701  -27.0933 C   0  0  0  0  0  0
  -19.7221   19.3616  -26.8340 C   0  0  0  0  0  0
  -20.0013   18.2485  -27.7104 C   0  0  0  0  0  0
  -20.6318   14.6986  -24.9816 C   0  0  0  0  0  0
  -21.2181   14.7340  -29.7717 C   0  0  0  0  0  0
  -21.6667   16.3580  -27.9726 C   0  0  1  0  0  0
  -20.7398   15.1844  -28.3810 C   0  0  1  0  0  0
  -19.7224   14.8636  -23.7462 C   0  0  0  0  0  0
  -20.6651   14.0062  -27.3788 C   0  0  0  0  0  0
  -19.1615   23.1224  -24.6597 N   0  0  0  0  0  0
  -17.0619   23.2150  -25.6012 N   0  0  0  0  0  0
  -21.1159   16.2221  -22.2171 N   0  0  0  0  0  0
  -20.5226   14.9450  -22.5053 N   0  0  0  0  0  0
  -21.0050   17.4692  -27.2624 N   0  0  0  0  0  0
  -20.0107   14.3163  -26.1071 N   0  0  0  0  0  0
  -22.6630   17.4923  -21.1517 O   0  0  0  0  0  0
  -20.4081   12.6896  -22.0069 O   0  0  0  0  0  0
  -16.2907   21.8206  -27.1571 O   0  0  0  0  0  0
  -19.4231   18.0692  -28.7827 O   0  0  0  0  0  0
  -21.8455   14.9014  -24.9253 O   0  0  0  0  0  0
  -23.8263   17.3192  -32.8065 H   0  0  0  0  0  0
  -24.2899   18.9571  -31.0100 H   0  0  0  0  0  0
  -22.4103   15.3609  -32.3597 H   0  0  0  0  0  0
  -23.3497   18.6242  -28.7538 H   0  0  0  0  0  0
  -22.9085   15.4171  -19.5496 H   0  0  0  0  0  0
  -21.8853   13.2617  -19.9609 H   0  0  0  0  0  0
  -20.3570   21.5480  -25.2626 H   0  0  0  0  0  0
  -17.7651   24.5721  -24.1587 H   0  0  0  0  0  0
  -18.1409   20.1232  -27.9765 H   0  0  0  0  0  0
  -20.3422   19.4472  -25.9534 H   0  0  0  0  0  0
  -20.3651   14.4876  -30.4007 H   0  0  0  0  0  0
  -21.8459   13.8421  -29.7007 H   0  0  0  0  0  0
  -22.4636   15.9629  -27.3400 H   0  0  0  0  0  0
  -19.7234   15.5539  -28.5135 H   0  0  0  0  0  0
  -19.0137   14.0327  -23.7047 H   0  0  0  0  0  0
  -19.1194   15.7664  -23.8585 H   0  0  0  0  0  0
  -21.6687   13.6067  -27.2043 H   0  0  0  0  0  0
  -20.1191   13.1777  -27.8369 H   0  0  0  0  0  0
  -16.1697   23.6775  -25.6540 H   0  0  0  0  0  0
  -20.9189   16.9024  -22.9351 H   0  0  0  0  0  0
  -21.4015   17.6997  -26.3649 H   0  0  0  0  0  0
  -19.0108   14.1687  -26.0709 H   0  0  0  0  0  0
  1  2  1  0  0  0
  1  3  2  0  0  0
  1 35  1  0  0  0
  2  4  2  0  0  0
  2 36  1  0  0  0
  3  5  1  0  0  0
  3 37  1  0  0  0
  4  6  1  0  0  0
  4 38  1  0  0  0
  5  6  2  0  0  0
  5 19  1  0  0  0
  6 20  1  0  0  0
  7  8  2  0  0  0
  7 12  1  0  0  0
  7 39  1  0  0  0
  8 13  1  0  0  0
  8 40  1  0  0  0
  9 11  2  0  0  0
  9 24  1  0  0  0
  9 41  1  0  0  0
 10 24  2  0  0  0
 10 25  1  0  0  0
 10 42  1  0  0  0
 11 14  1  0  0  0
 11 15  1  0  0  0
 12 26  1  0  0  0
 12 30  2  0  0  0
 13 27  1  0  0  0
 13 31  2  0  0  0
 14 25  1  0  0  0
 14 32  2  0  0  0
 15 16  2  0  0  0
 15 43  1  0  0  0
 16 17  1  0  0  0
 16 44  1  0  0  0
 17 28  1  0  0  0
 17 33  2  0  0  0
 18 22  1  0  0  0
 18 29  1  0  0  0
 18 34  2  0  0  0
 19 21  1  0  0  0
 19 45  1  0  0  0
 19 46  1  0  0  0
 20 21  1  0  0  0
 20 28  1  0  0  0
 20 47  1  0  0  0
 21 23  1  0  0  0
 21 48  1  0  0  0
 22 27  1  0  0  0
 22 49  1  0  0  0
 22 50  1  0  0  0
 23 29  1  0  0  0
 23 51  1  0  0  0
 23 52  1  0  0  0
 25 53  1  0  0  0
 26 27  1  0  0  0
 26 54  1  0  0  0
 28 55  1  0  0  0
 29 56  1  0  0  0
M  END
> <s_i_glide_gridfile>
Cov2_glide-grid_1

> <i_i_glide_lignum>
65

> <i_i_glide_rotatable_bonds>
9

> <r_i_docking_score>
-8.67229

> <r_i_glide_ligand_efficiency>
-0.255067

> <r_i_glide_ligand_efficiency_sa>
-0.826319

> <r_i_glide_ligand_efficiency_ln>
-1.91595

> <r_i_glide_gscore>
-8.67229

> <r_i_glide_lipo>
-3.26148

> <r_i_glide_hbond>
-0.732747

> <r_i_glide_metal>
-0

> <r_i_glide_rewards>
-1.02549

> <r_i_glide_evdw>
-53.0621

> <r_i_glide_ecoul>
-10.654

> <r_i_glide_erotb>
0.659328

> <r_i_glide_esite>
-0.0606959

> <r_i_glide_emodel>
-95.5116

> <r_i_glide_energy>
-63.7161

> <r_i_glide_einternal>
3.15442

> <i_i_glide_confnum>
41

> <i_i_glide_posenum>
344

> <r_i_glide_eff_state_penalty>
0

$$$$
65
                    3D
 Structure written by MMmdl.
 49 51  0  0  1  0            999 V2000
  -20.0493   13.4830  -21.1794 C   0  0  0  0  0  0
  -18.8743   13.8210  -21.8446 C   0  0  0  0  0  0
  -21.2673   14.0265  -21.5741 C   0  0  0  0  0  0
  -18.9161   14.6972  -22.9198 C   0  0  0  0  0  0
  -21.3102   14.9142  -22.6462 C   0  0  0  0  0  0
  -20.1340   15.2472  -23.3311 C   0  0  0  0  0  0
  -17.3276   23.3235  -25.2025 C   0  0  0  0  0  0
  -18.5308   23.3259  -24.5903 C   0  0  0  0  0  0
  -19.8166   14.0992  -28.1967 C   0  0  0  0  0  0
  -22.2158   13.7790  -28.2593 C   0  0  0  0  0  0
  -19.7606   13.4215  -29.3588 C   0  0  0  0  0  0
  -21.1420   14.2968  -27.5872 C   0  0  0  0  0  0
  -16.9924   22.4117  -26.2721 C   0  0  0  0  0  0
  -19.6104   22.4354  -24.9636 C   0  0  0  0  0  0
  -22.1254   13.0640  -29.5323 C   0  0  0  0  0  0
  -21.3261   14.9872  -26.3093 C   0  0  0  0  0  0
  -19.9536   19.2636  -25.5786 C   0  0  0  0  0  0
  -20.2202   20.5159  -26.4348 C   0  0  0  0  0  0
  -21.0977   17.4555  -24.2730 C   0  0  0  0  0  0
  -20.1311   16.2534  -24.4872 C   0  0  2  0  0  0
  -20.8599   12.9110  -29.9983 N   0  0  0  0  0  0
  -18.0205   21.6145  -26.6466 N   0  0  0  0  0  0
  -19.3018   21.5919  -26.0092 N   0  0  0  0  0  0
  -20.2354   15.5954  -25.7984 N   0  0  0  0  0  0
  -21.0376   18.5411  -25.2565 N   0  0  0  0  0  0
  -15.8877   22.3122  -26.7903 O   0  0  0  0  0  0
  -20.7058   22.4497  -24.4000 O   0  0  0  0  0  0
  -23.0868   12.6272  -30.1560 O   0  0  0  0  0  0
  -22.4106   15.0227  -25.7256 O   0  0  0  0  0  0
  -18.8115   18.9897  -25.2036 O   0  0  0  0  0  0
  -20.0127   12.7982  -20.3435 H   0  0  0  0  0  0
  -17.9343   13.3952  -21.5355 H   0  0  0  0  0  0
  -22.1747   13.7604  -21.0516 H   0  0  0  0  0  0
  -17.9976   14.9544  -23.4288 H   0  0  0  0  0  0
  -22.2629   15.3244  -22.9470 H   0  0  0  0  0  0
  -16.5521   23.9930  -24.8513 H   0  0  0  0  0  0
  -18.6999   24.0015  -23.7644 H   0  0  0  0  0  0
  -18.9074   14.4712  -27.7516 H   0  0  0  0  0  0
  -23.2123   13.8886  -27.8589 H   0  0  0  0  0  0
  -18.8432   13.2300  -29.8980 H   0  0  0  0  0  0
  -21.2604   20.8327  -26.3361 H   0  0  0  0  0  0
  -20.0639   20.2715  -27.4866 H   0  0  0  0  0  0
  -20.9201   17.8895  -23.2876 H   0  0  0  0  0  0
  -22.1320   17.1125  -24.2588 H   0  0  0  0  0  0
  -19.1398   16.6958  -24.4501 H   0  0  0  0  0  0
  -20.8024   12.4091  -30.8732 H   0  0  0  0  0  0
  -17.9110   20.8647  -27.3121 H   0  0  0  0  0  0
  -19.3742   15.5107  -26.3127 H   0  0  0  0  0  0
  -21.9212   18.8124  -25.6613 H   0  0  0  0  0  0
  1  2  1  0  0  0
  1  3  2  0  0  0
  1 31  1  0  0  0
  2  4  2  0  0  0
  2 32  1  0  0  0
  3  5  1  0  0  0
  3 33  1  0  0  0
  4  6  1  0  0  0
  4 34  1  0  0  0
  5  6  2  0  0  0
  5 35  1  0  0  0
  6 20  1  0  0  0
  7  8  2  0  0  0
  7 13  1  0  0  0
  7 36  1  0  0  0
  8 14  1  0  0  0
  8 37  1  0  0  0
  9 11  2  0  0  0
  9 12  1  0  0  0
  9 38  1  0  0  0
 10 12  2  0  0  0
 10 15  1  0  0  0
 10 39  1  0  0  0
 11 21  1  0  0  0
 11 40  1  0  0  0
 12 16  1  0  0  0
 13 22  1  0  0  0
 13 26  2  0  0  0
 14 23  1  0  0  0
 14 27  2  0  0  0
 15 21  1  0  0  0
 15 28  2  0  0  0
 16 24  1  0  0  0
 16 29  2  0  0  0
 17 18  1  0  0  0
 17 25  1  0  0  0
 17 30  2  0  0  0
 18 23  1  0  0  0
 18 41  1  0  0  0
 18 42  1  0  0  0
 19 20  1  0  0  0
 19 25  1  0  0  0
 19 43  1  0  0  0
 19 44  1  0  0  0
 20 24  1  0  0  0
 20 45  1  0  0  0
 21 46  1  0  0  0
 22 23  1  0  0  0
 22 47  1  0  0  0
 24 48  1  0  0  0
 25 49  1  0  0  0
M  END
> <s_i_glide_gridfile>
Cov2_glide-grid_1

> <i_i_glide_lignum>
55

> <i_i_glide_rotatable_bonds>
9

> <r_i_docking_score>
-8.66831

> <r_i_glide_ligand_efficiency>
-0.288944

> <r_i_glide_ligand_efficiency_sa>
-0.897815

> <r_i_glide_ligand_efficiency_ln>
-1.96953

> <r_i_glide_gscore>
-8.66831

> <r_i_glide_lipo>
-3.04955

> <r_i_glide_hbond>
-0.936692

> <r_i_glide_metal>
-0

> <r_i_glide_rewards>
-1.09657

> <r_i_glide_evdw>
-52.4892

> <r_i_glide_ecoul>
-11.1062

> <r_i_glide_erotb>
0.704887

> <r_i_glide_esite>
0

> <r_i_glide_emodel>
-94.1352

> <r_i_glide_energy>
-63.5954

> <r_i_glide_einternal>
6.01169

> <i_i_glide_confnum>
39

> <i_i_glide_posenum>
358

> <r_i_glide_eff_state_penalty>
0

$$$$
75
                    3D
 Structure written by MMmdl.
 53 56  0  0  1  0            999 V2000
  -26.0114   17.4225  -32.3957 C   0  0  0  0  0  0
  -25.3681   18.6521  -32.2703 C   0  0  0  0  0  0
  -25.3622   16.2489  -32.0077 C   0  0  0  0  0  0
  -24.0740   18.7092  -31.7550 C   0  0  0  0  0  0
  -24.0724   16.3013  -31.4827 C   0  0  0  0  0  0
  -23.4265   17.5323  -31.3667 C   0  0  0  0  0  0
  -16.9609   21.8216  -27.6257 C   0  0  0  0  0  0
  -17.8479   22.2304  -28.5594 C   0  0  0  0  0  0
  -17.2923   20.6853  -26.7883 C   0  0  0  0  0  0
  -19.8728   13.4276  -23.7757 C   0  0  0  0  0  0
  -18.4784   20.0864  -27.0218 C   0  0  0  0  0  0
  -20.5117   14.2328  -21.7458 C   0  0  0  0  0  0
  -20.7149   14.2211  -24.4911 C   0  0  0  0  0  0
  -19.1757   21.6439  -28.7151 C   0  0  0  0  0  0
  -21.5699   15.1338  -23.7189 C   0  0  0  0  0  0
  -20.7093   14.1510  -25.9578 C   0  0  0  0  0  0
  -21.4991   14.8246  -26.8244 C   0  0  0  0  0  0
  -21.3502   14.7013  -28.2561 C   0  0  0  0  0  0
  -20.6453   18.8535  -29.3752 C   0  0  0  0  0  0
  -23.1476   15.1695  -31.0927 C   0  0  0  0  0  0
  -22.0382   17.3560  -30.7991 C   0  0  2  0  0  0
  -21.9723   15.8583  -30.3856 C   0  0  1  0  0  0
  -20.6872   19.8028  -28.1640 C   0  0  0  0  0  0
  -19.7740   13.4211  -22.4121 N   0  0  0  0  0  0
  -21.3844   15.0642  -22.3814 N   0  0  0  0  0  0
  -19.4002   20.5001  -27.9664 N   0  0  0  0  0  0
  -22.0422   15.6306  -28.9339 N   0  0  0  0  0  0
  -21.8189   18.3059  -29.6999 N   0  0  0  0  0  0
  -20.0082   22.2115  -29.4300 O   0  0  0  0  0  0
  -22.4192   15.9101  -24.1390 O   0  0  0  0  0  0
  -20.6284   13.8624  -28.7986 O   0  0  0  0  0  0
  -19.6105   18.6203  -29.9956 O   0  0  0  0  0  0
  -27.0090   17.3817  -32.8071 H   0  0  0  0  0  0
  -25.8690   19.5569  -32.5830 H   0  0  0  0  0  0
  -25.8723   15.3066  -32.1330 H   0  0  0  0  0  0
  -23.5795   19.6652  -31.6680 H   0  0  0  0  0  0
  -16.0039   22.3120  -27.5299 H   0  0  0  0  0  0
  -17.5987   23.0579  -29.2013 H   0  0  0  0  0  0
  -16.6206   20.3522  -26.0138 H   0  0  0  0  0  0
  -19.2107   12.7503  -24.2962 H   0  0  0  0  0  0
  -18.8322   19.2417  -26.4477 H   0  0  0  0  0  0
  -20.4648   14.2779  -20.6610 H   0  0  0  0  0  0
  -19.9728   13.4830  -26.3929 H   0  0  0  0  0  0
  -22.2641   15.5068  -26.4881 H   0  0  0  0  0  0
  -22.7864   14.6937  -32.0008 H   0  0  0  0  0  0
  -23.6106   14.3818  -30.4971 H   0  0  0  0  0  0
  -21.3254   17.5078  -31.6146 H   0  0  0  0  0  0
  -21.0498   15.4324  -30.7918 H   0  0  0  0  0  0
  -21.4996   20.5204  -28.2917 H   0  0  0  0  0  0
  -20.9485   19.2388  -27.2683 H   0  0  0  0  0  0
  -21.9577   15.6985  -21.8526 H   0  0  0  0  0  0
  -22.6752   16.2246  -28.4224 H   0  0  0  0  0  0
  -22.6382   18.5700  -29.1726 H   0  0  0  0  0  0
  1  2  1  0  0  0
  1  3  2  0  0  0
  1 33  1  0  0  0
  2  4  2  0  0  0
  2 34  1  0  0  0
  3  5  1  0  0  0
  3 35  1  0  0  0
  4  6  1  0  0  0
  4 36  1  0  0  0
  5  6  2  0  0  0
  5 20  1  0  0  0
  6 21  1  0  0  0
  7  8  2  0  0  0
  7  9  1  0  0  0
  7 37  1  0  0  0
  8 14  1  0  0  0
  8 38  1  0  0  0
  9 11  2  0  0  0
  9 39  1  0  0  0
 10 13  2  0  0  0
 10 24  1  0  0  0
 10 40  1  0  0  0
 11 26  1  0  0  0
 11 41  1  0  0  0
 12 24  2  0  0  0
 12 25  1  0  0  0
 12 42  1  0  0  0
 13 15  1  0  0  0
 13 16  1  0  0  0
 14 26  1  0  0  0
 14 29  2  0  0  0
 15 25  1  0  0  0
 15 30  2  0  0  0
 16 17  2  0  0  0
 16 43  1  0  0  0
 17 18  1  0  0  0
 17 44  1  0  0  0
 18 27  1  0  0  0
 18 31  2  0  0  0
 19 23  1  0  0  0
 19 28  1  0  0  0
 19 32  2  0  0  0
 20 22  1  0  0  0
 20 45  1  0  0  0
 20 46  1  0  0  0
 21 22  1  0  0  0
 21 28  1  0  0  0
 21 47  1  0  0  0
 22 27  1  0  0  0
 22 48  1  0  0  0
 23 26  1  0  0  0
 23 49  1  0  0  0
 23 50  1  0  0  0
 25 51  1  0  0  0
 27 52  1  0  0  0
 28 53  1  0  0  0
M  END
> <s_i_glide_gridfile>
Cov2_glide-grid_1

> <i_i_glide_lignum>
70

> <i_i_glide_rotatable_bonds>
8

> <r_i_docking_score>
-8.6564

> <r_i_glide_ligand_efficiency>
-0.270513

> <r_i_glide_ligand_efficiency_sa>
-0.858824

> <r_i_glide_ligand_efficiency_ln>
-1.9384

> <r_i_glide_gscore>
-8.6564

> <r_i_glide_lipo>
-3.56061

> <r_i_glide_hbond>
-0.782355

> <r_i_glide_metal>
-0

> <r_i_glide_rewards>
-1.42428

> <r_i_glide_evdw>
-47.8934

> <r_i_glide_ecoul>
-7.57069

> <r_i_glide_erotb>
0.641114

> <r_i_glide_esite>
0

> <r_i_glide_emodel>
-82.0363

> <r_i_glide_energy>
-55.464

> <r_i_glide_einternal>
4.64312

> <i_i_glide_confnum>
41

> <i_i_glide_posenum>
388

> <r_i_glide_eff_state_penalty>
0

$$$$
29
                    3D
 Structure written by MMmdl.
 59 62  0  0  1  0            999 V2000
  -22.1199   12.6541  -29.8003 C   0  0  0  0  0  0
  -20.7545   12.8430  -30.0005 C   0  0  0  0  0  0
  -22.8102   13.5048  -28.9407 C   0  0  0  0  0  0
  -20.0726   13.8656  -29.3491 C   0  0  0  0  0  0
  -22.1388   14.5456  -28.2969 C   0  0  0  0  0  0
  -20.7677   14.7281  -28.5066 C   0  0  0  0  0  0
  -20.1084   13.4195  -20.3964 C   0  0  0  0  0  0
  -21.2928   14.0553  -20.5484 C   0  0  0  0  0  0
  -18.9783   13.8203  -21.2153 C   0  0  0  0  0  0
  -19.3754   22.5620  -25.4367 C   0  0  0  0  0  0
  -19.1895   14.8211  -22.0903 C   0  0  0  0  0  0
  -18.3648   22.0335  -26.1801 C   0  0  0  0  0  0
  -21.5023   15.1430  -21.5041 C   0  0  0  0  0  0
  -17.0374   22.6206  -26.0018 C   0  0  0  0  0  0
  -18.0721   24.1135  -24.4047 C   0  0  0  0  0  0
  -18.5279   20.9127  -27.1071 C   0  0  0  0  0  0
  -19.7239   20.4858  -27.5685 C   0  0  0  0  0  0
  -19.9052   19.3456  -28.4255 C   0  0  0  0  0  0
  -20.9547   15.9079  -24.6558 C   0  0  0  0  0  0
  -22.6779   15.5405  -27.2975 C   0  0  0  0  0  0
  -20.2354   15.9200  -27.7476 C   0  0  2  0  0  0
  -21.4958   16.4968  -27.0436 C   0  0  2  0  0  0
  -17.8671   25.2449  -23.4260 C   0  0  0  0  0  0
  -20.5750   16.5210  -23.2957 C   0  0  0  0  0  0
  -19.4295   16.9108  -28.6348 C   0  0  0  0  0  0
  -19.2355   23.5983  -24.5617 N   0  0  0  0  0  0
  -17.0098   23.6565  -25.1314 N   0  0  0  0  0  0
  -20.3936   15.4773  -22.2647 N   0  0  0  0  0  0
  -19.2676   18.2312  -28.0260 N   0  0  0  0  0  0
  -21.2405   16.7966  -25.6258 N   0  0  0  0  0  0
  -22.6027   15.6957  -21.5854 O   0  0  0  0  0  0
  -16.0105   22.2206  -26.5485 O   0  0  0  0  0  0
  -20.6609   19.3926  -29.3931 O   0  0  0  0  0  0
  -20.9612   14.6889  -24.8369 O   0  0  0  0  0  0
  -22.6367   11.8569  -30.3128 H   0  0  0  0  0  0
  -20.2140   12.2220  -30.6887 H   0  0  0  0  0  0
  -23.8684   13.3543  -28.8010 H   0  0  0  0  0  0
  -19.0158   13.9941  -29.5283 H   0  0  0  0  0  0
  -20.0105   12.6210  -19.6733 H   0  0  0  0  0  0
  -22.1368   13.7557  -19.9438 H   0  0  0  0  0  0
  -18.0129   13.3494  -21.1275 H   0  0  0  0  0  0
  -20.3735   22.1570  -25.5038 H   0  0  0  0  0  0
  -18.4179   15.2074  -22.7425 H   0  0  0  0  0  0
  -17.6378   20.3833  -27.4366 H   0  0  0  0  0  0
  -20.6491   20.9797  -27.3157 H   0  0  0  0  0  0
  -22.9826   15.0174  -26.3925 H   0  0  0  0  0  0
  -23.5439   16.0843  -27.6744 H   0  0  0  0  0  0
  -19.5368   15.5353  -27.0002 H   0  0  0  0  0  0
  -21.7706   17.4265  -27.5430 H   0  0  0  0  0  0
  -18.3416   25.0179  -22.4684 H   0  0  0  0  0  0
  -16.8112   25.4227  -23.2150 H   0  0  0  0  0  0
  -18.3018   26.1708  -23.8034 H   0  0  0  0  0  0
  -19.6338   17.0599  -23.4141 H   0  0  0  0  0  0
  -21.2944   17.2804  -22.9873 H   0  0  0  0  0  0
  -19.9098   16.9938  -29.6140 H   0  0  0  0  0  0
  -18.4401   16.4973  -28.8401 H   0  0  0  0  0  0
  -16.0977   24.0486  -24.9501 H   0  0  0  0  0  0
  -18.6332   18.2945  -27.2486 H   0  0  0  0  0  0
  -21.2558   17.7740  -25.3792 H   0  0  0  0  0  0
  1  2  1  0  0  0
  1  3  2  0  0  0
  1 35  1  0  0  0
  2  4  2  0  0  0
  2 36  1  0  0  0
  3  5  1  0  0  0
  3 37  1  0  0  0
  4  6  1  0  0  0
  4 38  1  0  0  0
  5  6  2  0  0  0
  5 20  1  0  0  0
  6 21  1  0  0  0
  7  8  2  0  0  0
  7  9  1  0  0  0
  7 39  1  0  0  0
  8 13  1  0  0  0
  8 40  1  0  0  0
  9 11  2  0  0  0
  9 41  1  0  0  0
 10 12  2  0  0  0
 10 26  1  0  0  0
 10 42  1  0  0  0
 11 28  1  0  0  0
 11 43  1  0  0  0
 12 14  1  0  0  0
 12 16  1  0  0  0
 13 28  1  0  0  0
 13 31  2  0  0  0
 14 27  1  0  0  0
 14 32  2  0  0  0
 15 23  1  0  0  0
 15 26  2  0  0  0
 15 27  1  0  0  0
 16 17  2  0  0  0
 16 44  1  0  0  0
 17 18  1  0  0  0
 17 45  1  0  0  0
 18 29  1  0  0  0
 18 33  2  0  0  0
 19 24  1  0  0  0
 19 30  1  0  0  0
 19 34  2  0  0  0
 20 22  1  0  0  0
 20 46  1  0  0  0
 20 47  1  0  0  0
 21 22  1  0  0  0
 21 25  1  0  0  0
 21 48  1  0  0  0
 22 30  1  0  0  0
 22 49  1  0  0  0
 23 50  1  0  0  0
 23 51  1  0  0  0
 23 52  1  0  0  0
 24 28  1  0  0  0
 24 53  1  0  0  0
 24 54  1  0  0  0
 25 29  1  0  0  0
 25 55  1  0  0  0
 25 56  1  0  0  0
 27 57  1  0  0  0
 29 58  1  0  0  0
 30 59  1  0  0  0
M  END
> <s_i_glide_gridfile>
Cov2_glide-grid_1

> <i_i_glide_lignum>
41

> <i_i_glide_rotatable_bonds>
9

> <r_i_docking_score>
-8.65211

> <r_i_glide_ligand_efficiency>
-0.254474

> <r_i_glide_ligand_efficiency_sa>
-0.824397

> <r_i_glide_ligand_efficiency_ln>
-1.91149

> <r_i_glide_gscore>
-8.65211

> <r_i_glide_lipo>
-3.8212

> <r_i_glide_hbond>
-0.533403

> <r_i_glide_metal>
-0

> <r_i_glide_rewards>
-0.724527

> <r_i_glide_evdw>
-51.9228

> <r_i_glide_ecoul>
-10.469

> <r_i_glide_erotb>
0.762387

> <r_i_glide_esite>
-0.168879

> <r_i_glide_emodel>
-91.6163

> <r_i_glide_energy>
-62.3919

> <r_i_glide_einternal>
7.71052

> <i_i_glide_confnum>
149

> <i_i_glide_posenum>
386

> <r_i_glide_eff_state_penalty>
0

$$$$
9
                    3D
 Structure written by MMmdl.
 56 59  0  0  1  0            999 V2000
  -22.4103   13.3794  -30.4015 C   0  0  0  0  0  0
  -22.1351   13.1685  -29.0545 C   0  0  0  0  0  0
  -22.8107   14.6404  -30.8367 C   0  0  0  0  0  0
  -22.3186   14.1842  -28.1206 C   0  0  0  0  0  0
  -20.6963   14.7095  -23.1339 C   0  0  0  0  0  0
  -21.7430   16.5081  -21.9354 C   0  0  0  0  0  0
  -21.4255   14.4721  -20.8590 C   0  0  0  0  0  0
  -22.9221   15.6829  -29.9236 C   0  0  0  0  0  0
  -22.7246   15.4449  -28.5568 C   0  0  0  0  0  0
  -21.1690   16.0269  -23.1182 C   0  0  0  0  0  0
  -20.8287   13.9202  -21.9932 C   0  0  0  0  0  0
  -17.3120   20.6529  -27.2934 C   0  0  0  0  0  0
  -18.6218   20.5996  -26.9288 C   0  0  0  0  0  0
  -19.0859   21.5688  -25.9406 C   0  0  0  0  0  0
  -16.8448   22.4304  -25.9709 C   0  0  0  0  0  0
  -19.6043   19.6848  -27.4783 C   0  0  0  0  0  0
  -19.4608   18.9701  -28.6151 C   0  0  0  0  0  0
  -20.4905   18.0996  -29.1095 C   0  0  0  0  0  0
  -22.2426   16.4917  -25.3790 C   0  0  0  0  0  0
  -23.3344   17.1148  -30.1726 C   0  0  0  0  0  0
  -23.0155   16.7012  -27.7604 C   0  0  2  0  0  0
  -22.9992   17.8101  -28.8458 C   0  0  1  0  0  0
  -15.9231   23.4209  -25.3452 C   0  0  0  0  0  0
  -21.1386   16.8817  -24.3811 C   0  0  0  0  0  0
  -21.8801   15.7506  -20.8171 N   0  0  0  0  0  0
  -16.4108   21.5529  -26.8022 N   0  0  0  0  0  0
  -18.1435   22.4534  -25.5677 N   0  0  0  0  0  0
  -21.7384   18.5627  -28.8933 N   0  0  0  0  0  0
  -22.0982   16.9433  -26.6308 N   0  0  0  0  0  0
  -20.2140   21.6190  -25.4615 O   0  0  0  0  0  0
  -20.2227   17.0033  -29.5892 O   0  0  0  0  0  0
  -23.2104   15.8211  -25.0279 O   0  0  0  0  0  0
  -20.4111   12.6209  -22.0015 O   0  0  0  0  0  0
  -22.2619   12.5805  -31.1129 H   0  0  0  0  0  0
  -21.7557   12.2210  -28.7386 H   0  0  0  0  0  0
  -22.9682   14.8220  -31.8884 H   0  0  0  0  0  0
  -22.1302   13.9927  -27.0749 H   0  0  0  0  0  0
  -20.2600   14.2913  -24.0295 H   0  0  0  0  0  0
  -22.1339   17.5135  -21.8771 H   0  0  0  0  0  0
  -21.5537   13.8898  -19.9588 H   0  0  0  0  0  0
  -16.9149   19.9452  -28.0016 H   0  0  0  0  0  0
  -20.5294   19.5827  -26.9203 H   0  0  0  0  0  0
  -18.5629   18.9876  -29.2003 H   0  0  0  0  0  0
  -24.4067   17.1483  -30.3654 H   0  0  0  0  0  0
  -22.8500   17.5835  -31.0305 H   0  0  0  0  0  0
  -24.0323   16.6100  -27.3866 H   0  0  0  0  0  0
  -23.7869   18.5327  -28.6227 H   0  0  0  0  0  0
  -15.6402   24.1553  -26.0925 H   0  0  0  0  0  0
  -16.4033   23.9386  -24.5086 H   0  0  0  0  0  0
  -15.0203   22.9460  -24.9627 H   0  0  0  0  0  0
  -20.1689   16.7585  -24.8659 H   0  0  0  0  0  0
  -21.2390   17.9377  -24.1283 H   0  0  0  0  0  0
  -18.4420   23.1142  -24.8695 H   0  0  0  0  0  0
  -21.8116   19.5256  -28.6052 H   0  0  0  0  0  0
  -21.2532   17.4424  -26.8640 H   0  0  0  0  0  0
  -20.6320   12.1531  -21.1819 H   0  0  0  0  0  0
  1  2  1  0  0  0
  1  3  2  0  0  0
  1 34  1  0  0  0
  2  4  2  0  0  0
  2 35  1  0  0  0
  3  8  1  0  0  0
  3 36  1  0  0  0
  4  9  1  0  0  0
  4 37  1  0  0  0
  5 10  1  0  0  0
  5 11  2  0  0  0
  5 38  1  0  0  0
  6 10  2  0  0  0
  6 25  1  0  0  0
  6 39  1  0  0  0
  7 11  1  0  0  0
  7 25  2  0  0  0
  7 40  1  0  0  0
  8  9  2  0  0  0
  8 20  1  0  0  0
  9 21  1  0  0  0
 10 24  1  0  0  0
 11 33  1  0  0  0
 12 13  2  0  0  0
 12 26  1  0  0  0
 12 41  1  0  0  0
 13 14  1  0  0  0
 13 16  1  0  0  0
 14 27  1  0  0  0
 14 30  2  0  0  0
 15 23  1  0  0  0
 15 26  2  0  0  0
 15 27  1  0  0  0
 16 17  2  0  0  0
 16 42  1  0  0  0
 17 18  1  0  0  0
 17 43  1  0  0  0
 18 28  1  0  0  0
 18 31  2  0  0  0
 19 24  1  0  0  0
 19 29  1  0  0  0
 19 32  2  0  0  0
 20 22  1  0  0  0
 20 44  1  0  0  0
 20 45  1  0  0  0
 21 22  1  0  0  0
 21 29  1  0  0  0
 21 46  1  0  0  0
 22 28  1  0  0  0
 22 47  1  0  0  0
 23 48  1  0  0  0
 23 49  1  0  0  0
 23 50  1  0  0  0
 24 51  1  0  0  0
 24 52  1  0  0  0
 27 53  1  0  0  0
 28 54  1  0  0  0
 29 55  1  0  0  0
 33 56  1  0  0  0
M  END
> <s_i_glide_gridfile>
Cov2_glide-grid_1

> <i_i_glide_lignum>
3

> <i_i_glide_rotatable_bonds>
9

> <r_i_docking_score>
-8.58391

> <r_i_glide_ligand_efficiency>
-0.260119

> <r_i_glide_ligand_efficiency_sa>
-0.834339

> <r_i_glide_ligand_efficiency_ln>
-1.90902

> <r_i_glide_gscore>
-8.58391

> <r_i_glide_lipo>
-3.17807

> <r_i_glide_hbond>
-1.15221

> <r_i_glide_metal>
-0

> <r_i_glide_rewards>
-0.971005

> <r_i_glide_evdw>
-45.1636

> <r_i_glide_ecoul>
-12.2071

> <r_i_glide_erotb>
0.806614

> <r_i_glide_esite>
0

> <r_i_glide_emodel>
-84.3595

> <r_i_glide_energy>
-57.3706

> <r_i_glide_einternal>
6.25523

> <i_i_glide_confnum>
189

> <i_i_glide_posenum>
292

> <r_i_glide_eff_state_penalty>
0

$$$$
80
                    3D
 Structure written by MMmdl.
 53 56  0  0  1  0            999 V2000
  -23.1991   14.1909  -30.3902 C   0  0  0  0  0  0
  -22.7062   15.4228  -30.8231 C   0  0  0  0  0  0
  -22.6214   13.5471  -29.2949 C   0  0  0  0  0  0
  -21.6136   16.0045  -30.1788 C   0  0  0  0  0  0
  -21.5500   14.1449  -28.6302 C   0  0  0  0  0  0
  -21.0225   15.3553  -29.0916 C   0  0  0  0  0  0
  -23.0985   15.4210  -20.7349 C   0  0  0  0  0  0
  -16.7619   21.3021  -27.0765 C   0  0  0  0  0  0
  -22.3991   15.9112  -21.7783 C   0  0  0  0  0  0
  -16.5563   23.0208  -25.6019 C   0  0  0  0  0  0
  -18.0366   20.9921  -26.7288 C   0  0  0  0  0  0
  -22.6559   14.1872  -20.1176 C   0  0  0  0  0  0
  -18.6647   21.8504  -25.7102 C   0  0  0  0  0  0
  -20.6173   14.3683  -21.5047 C   0  0  0  0  0  0
  -18.6790   19.8123  -27.3203 C   0  0  0  0  0  0
  -19.8600   19.2595  -26.9618 C   0  0  0  0  0  0
  -20.4135   18.0365  -27.4928 C   0  0  0  0  0  0
  -20.2954   14.9327  -24.6033 C   0  0  0  0  0  0
  -20.7118   13.5940  -27.5023 C   0  0  0  0  0  0
  -19.7731   15.7125  -28.2981 C   0  0  2  0  0  0
  -19.8243   14.7713  -27.0594 C   0  0  1  0  0  0
  -20.5743   15.9333  -23.4591 C   0  0  0  0  0  0
  -16.0133   22.2955  -26.5153 N   0  0  0  0  0  0
  -17.8445   22.8039  -25.2123 N   0  0  0  0  0  0
  -21.4106   13.8211  -20.5310 N   0  0  0  0  0  0
  -21.2400   15.3498  -22.2659 N   0  0  0  0  0  0
  -19.5292   17.1420  -27.9898 N   0  0  0  0  0  0
  -20.3228   15.4363  -25.8445 N   0  0  0  0  0  0
  -23.3299   13.5064  -19.3501 O   0  0  0  0  0  0
  -19.8168   21.7926  -25.2968 O   0  0  0  0  0  0
  -19.4498   13.9899  -21.6032 O   0  0  0  0  0  0
  -21.6084   17.7840  -27.3576 O   0  0  0  0  0  0
  -20.0105   13.7620  -24.3867 O   0  0  0  0  0  0
  -24.0150   13.7252  -30.9154 H   0  0  0  0  0  0
  -23.1509   15.9138  -31.6784 H   0  0  0  0  0  0
  -23.0037   12.5885  -28.9764 H   0  0  0  0  0  0
  -21.2128   16.9358  -30.5500 H   0  0  0  0  0  0
  -23.9739   15.9216  -20.3507 H   0  0  0  0  0  0
  -16.2474   20.6967  -27.8103 H   0  0  0  0  0  0
  -22.6414   16.8569  -22.2459 H   0  0  0  0  0  0
  -16.0113   23.8195  -25.1079 H   0  0  0  0  0  0
  -18.1263   19.3201  -28.1123 H   0  0  0  0  0  0
  -20.4925   19.7037  -26.2088 H   0  0  0  0  0  0
  -20.0813   12.7975  -27.8986 H   0  0  0  0  0  0
  -21.2863   13.1520  -26.6890 H   0  0  0  0  0  0
  -18.9365   15.3753  -28.9136 H   0  0  0  0  0  0
  -18.8166   14.4055  -26.8573 H   0  0  0  0  0  0
  -19.6239   16.3670  -23.1447 H   0  0  0  0  0  0
  -21.1742   16.7510  -23.8599 H   0  0  0  0  0  0
  -18.2476   23.3644  -24.4774 H   0  0  0  0  0  0
  -21.0327   13.0018  -20.0748 H   0  0  0  0  0  0
  -18.5823   17.4518  -28.1411 H   0  0  0  0  0  0
  -20.6540   16.3812  -25.9853 H   0  0  0  0  0  0
  1  2  1  0  0  0
  1  3  2  0  0  0
  1 34  1  0  0  0
  2  4  2  0  0  0
  2 35  1  0  0  0
  3  5  1  0  0  0
  3 36  1  0  0  0
  4  6  1  0  0  0
  4 37  1  0  0  0
  5  6  2  0  0  0
  5 19  1  0  0  0
  6 20  1  0  0  0
  7  9  2  0  0  0
  7 12  1  0  0  0
  7 38  1  0  0  0
  8 11  2  0  0  0
  8 23  1  0  0  0
  8 39  1  0  0  0
  9 26  1  0  0  0
  9 40  1  0  0  0
 10 23  2  0  0  0
 10 24  1  0  0  0
 10 41  1  0  0  0
 11 13  1  0  0  0
 11 15  1  0  0  0
 12 25  1  0  0  0
 12 29  2  0  0  0
 13 24  1  0  0  0
 13 30  2  0  0  0
 14 25  1  0  0  0
 14 26  1  0  0  0
 14 31  2  0  0  0
 15 16  2  0  0  0
 15 42  1  0  0  0
 16 17  1  0  0  0
 16 43  1  0  0  0
 17 27  1  0  0  0
 17 32  2  0  0  0
 18 22  1  0  0  0
 18 28  1  0  0  0
 18 33  2  0  0  0
 19 21  1  0  0  0
 19 44  1  0  0  0
 19 45  1  0  0  0
 20 21  1  0  0  0
 20 27  1  0  0  0
 20 46  1  0  0  0
 21 28  1  0  0  0
 21 47  1  0  0  0
 22 26  1  0  0  0
 22 48  1  0  0  0
 22 49  1  0  0  0
 24 50  1  0  0  0
 25 51  1  0  0  0
 27 52  1  0  0  0
 28 53  1  0  0  0
M  END
> <s_i_glide_gridfile>
Cov2_glide-grid_1

> <i_i_glide_lignum>
71

> <i_i_glide_rotatable_bonds>
8

> <r_i_docking_score>
-8.58027

> <r_i_glide_ligand_efficiency>
-0.260008

> <r_i_glide_ligand_efficiency_sa>
-0.833985

> <r_i_glide_ligand_efficiency_ln>
-1.90821

> <r_i_glide_gscore>
-8.58027

> <r_i_glide_lipo>
-3.53078

> <r_i_glide_hbond>
-0.495717

> <r_i_glide_metal>
-0

> <r_i_glide_rewards>
-1.36251

> <r_i_glide_evdw>
-56.4985

> <r_i_glide_ecoul>
-6.18744

> <r_i_glide_erotb>
0.597722

> <r_i_glide_esite>
-0.0359373

> <r_i_glide_emodel>
-88.5758

> <r_i_glide_energy>
-62.686

> <r_i_glide_einternal>
11.8132

> <i_i_glide_confnum>
23

> <i_i_glide_posenum>
396

> <r_i_glide_eff_state_penalty>
0

$$$$
87
                    3D
 Structure written by MMmdl.
 57 60  0  0  1  0            999 V2000
  -21.1501   14.9189  -22.0449 C   0  0  0  0  0  0
  -20.1644   14.0635  -22.5222 C   0  0  0  0  0  0
  -21.9310   15.6631  -22.9257 C   0  0  0  0  0  0
  -19.9429   13.9399  -23.8919 C   0  0  0  0  0  0
  -22.5134   16.2873  -25.2501 C   0  0  0  0  0  0
  -22.2742   16.1780  -26.6165 C   0  0  0  0  0  0
  -20.4898   14.6055  -26.2150 C   0  0  0  0  0  0
  -21.7311   15.5553  -24.3254 C   0  0  0  0  0  0
  -20.7123   14.6887  -24.8168 C   0  0  0  0  0  0
  -21.2536   15.3587  -27.1122 C   0  0  0  0  0  0
  -26.0142   17.4461  -32.2840 C   0  0  0  0  0  0
  -26.8226   19.4875  -32.8833 C   0  0  0  0  0  0
  -24.8094   17.9235  -31.8635 C   0  0  0  0  0  0
  -24.5877   19.3642  -31.9966 C   0  0  0  0  0  0
  -17.1298   21.7484  -26.6068 C   0  0  0  0  0  0
  -19.3103   21.2174  -26.3155 C   0  0  0  0  0  0
  -23.7691   17.1209  -31.2214 C   0  0  0  0  0  0
  -23.8008   15.7756  -31.0532 C   0  0  0  0  0  0
  -22.8105   15.0110  -30.3203 C   0  0  0  0  0  0
  -19.5519   18.3133  -28.0118 C   0  0  0  0  0  0
  -17.5462   20.9325  -27.7942 C   0  0  0  0  0  0
  -19.7772   19.8044  -28.3195 C   0  0  0  0  0  0
  -19.6409   16.0097  -29.0011 C   0  0  0  0  0  0
  -20.9489   15.2627  -28.6189 C   0  0  2  0  0  0
  -27.0162   18.2211  -32.8017 N   0  0  0  0  0  0
  -25.6412   20.0446  -32.4922 N   0  0  0  0  0  0
  -18.2158   21.8361  -25.8289 N   0  0  0  0  0  0
  -18.9197   20.6580  -27.4780 N   0  0  0  0  0  0
  -22.0461   15.7245  -29.4765 N   0  0  0  0  0  0
  -19.7584   17.4757  -29.0405 N   0  0  0  0  0  0
  -23.5628   19.9676  -31.6883 O   0  0  0  0  0  0
  -16.0109   22.2099  -26.4014 O   0  0  0  0  0  0
  -20.4238   21.1838  -25.7960 O   0  0  0  0  0  0
  -22.7061   13.7940  -30.4570 O   0  0  0  0  0  0
  -19.2099   17.9365  -26.8919 O   0  0  0  0  0  0
  -21.3077   15.0076  -20.9789 H   0  0  0  0  0  0
  -19.5658   13.4960  -21.8266 H   0  0  0  0  0  0
  -22.6931   16.3266  -22.5437 H   0  0  0  0  0  0
  -19.1808   13.2709  -24.2617 H   0  0  0  0  0  0
  -23.2925   16.9445  -24.8892 H   0  0  0  0  0  0
  -22.8846   16.7620  -27.2885 H   0  0  0  0  0  0
  -19.7029   13.9576  -26.5791 H   0  0  0  0  0  0
  -26.2533   16.3959  -32.1882 H   0  0  0  0  0  0
  -27.5862   20.1547  -33.2762 H   0  0  0  0  0  0
  -22.9153   17.6632  -30.8299 H   0  0  0  0  0  0
  -24.5981   15.1831  -31.4747 H   0  0  0  0  0  0
  -16.9832   20.0034  -27.8806 H   0  0  0  0  0  0
  -17.4652   21.4840  -28.7318 H   0  0  0  0  0  0
  -19.5888   20.0184  -29.3730 H   0  0  0  0  0  0
  -20.8287   20.0210  -28.1248 H   0  0  0  0  0  0
  -18.8143   15.7019  -28.3611 H   0  0  0  0  0  0
  -19.3452   15.6948  -30.0017 H   0  0  0  0  0  0
  -20.7837   14.2015  -28.8166 H   0  0  0  0  0  0
  -25.4939   21.0353  -32.5772 H   0  0  0  0  0  0
  -18.2126   22.3242  -24.9455 H   0  0  0  0  0  0
  -22.2202   16.7148  -29.4269 H   0  0  0  0  0  0
  -20.0153   17.8675  -29.9347 H   0  0  0  0  0  0
  1  2  1  0  0  0
  1  3  2  0  0  0
  1 36  1  0  0  0
  2  4  2  0  0  0
  2 37  1  0  0  0
  3  8  1  0  0  0
  3 38  1  0  0  0
  4  9  1  0  0  0
  4 39  1  0  0  0
  5  6  2  0  0  0
  5  8  1  0  0  0
  5 40  1  0  0  0
  6 10  1  0  0  0
  6 41  1  0  0  0
  7  9  1  0  0  0
  7 10  2  0  0  0
  7 42  1  0  0  0
  8  9  2  0  0  0
 10 24  1  0  0  0
 11 13  2  0  0  0
 11 25  1  0  0  0
 11 43  1  0  0  0
 12 25  2  0  0  0
 12 26  1  0  0  0
 12 44  1  0  0  0
 13 14  1  0  0  0
 13 17  1  0  0  0
 14 26  1  0  0  0
 14 31  2  0  0  0
 15 21  1  0  0  0
 15 27  1  0  0  0
 15 32  2  0  0  0
 16 27  1  0  0  0
 16 28  1  0  0  0
 16 33  2  0  0  0
 17 18  2  0  0  0
 17 45  1  0  0  0
 18 19  1  0  0  0
 18 46  1  0  0  0
 19 29  1  0  0  0
 19 34  2  0  0  0
 20 22  1  0  0  0
 20 30  1  0  0  0
 20 35  2  0  0  0
 21 28  1  0  0  0
 21 47  1  0  0  0
 21 48  1  0  0  0
 22 28  1  0  0  0
 22 49  1  0  0  0
 22 50  1  0  0  0
 23 24  1  0  0  0
 23 30  1  0  0  0
 23 51  1  0  0  0
 23 52  1  0  0  0
 24 29  1  0  0  0
 24 53  1  0  0  0
 26 54  1  0  0  0
 27 55  1  0  0  0
 29 56  1  0  0  0
 30 57  1  0  0  0
M  END
> <s_i_glide_gridfile>
Cov2_glide-grid_1

> <i_i_glide_lignum>
94

> <i_i_glide_rotatable_bonds>
10

> <r_i_docking_score>
-8.56038

> <r_i_glide_ligand_efficiency>
-0.244582

> <r_i_glide_ligand_efficiency_sa>
-0.800045

> <r_i_glide_ligand_efficiency_ln>
-1.87919

> <r_i_glide_gscore>
-8.56038

> <r_i_glide_lipo>
-3.61655

> <r_i_glide_hbond>
-0.32

> <r_i_glide_metal>
-0

> <r_i_glide_rewards>
-1.66486

> <r_i_glide_evdw>
-57.0331

> <r_i_glide_ecoul>
-4.87776

> <r_i_glide_erotb>
0.629202

> <r_i_glide_esite>
-0.00486232

> <r_i_glide_emodel>
-89.9479

> <r_i_glide_energy>
-61.9109

> <r_i_glide_einternal>
7.64026

> <i_i_glide_confnum>
87

> <i_i_glide_posenum>
210

> <r_i_glide_eff_state_penalty>
0

$$$$
66
                    3D
 Structure written by MMmdl.
 59 62  0  0  1  0            999 V2000
  -23.2105   14.6998  -30.8060 C   0  0  0  0  0  0
  -23.2116   13.8218  -29.7311 C   0  0  0  0  0  0
  -22.3511   15.7893  -30.8188 C   0  0  0  0  0  0
  -22.4139   14.0531  -28.6192 C   0  0  0  0  0  0
  -21.5228   16.0059  -29.7235 C   0  0  0  0  0  0
  -21.5768   15.1666  -28.6102 C   0  0  0  0  0  0
  -22.7346   14.8007  -20.0082 C   0  0  0  0  0  0
  -21.7721   13.8780  -20.2212 C   0  0  0  0  0  0
  -19.4467   22.7431  -25.0027 C   0  0  0  0  0  0
  -18.3956   22.3173  -25.7519 C   0  0  0  0  0  0
  -22.8614   15.9978  -20.8065 C   0  0  0  0  0  0
  -20.7774   13.9915  -21.2688 C   0  0  0  0  0  0
  -17.1278   23.0210  -25.6039 C   0  0  0  0  0  0
  -18.3045   24.4693  -24.0669 C   0  0  0  0  0  0
  -18.4799   21.2418  -26.7185 C   0  0  0  0  0  0
  -19.1988   20.1155  -26.5474 C   0  0  0  0  0  0
  -19.3278   19.1767  -27.6258 C   0  0  0  0  0  0
  -20.4737   15.1668  -24.3247 C   0  0  0  0  0  0
  -20.6466   17.1790  -29.4416 C   0  0  0  0  0  0
  -20.7446   15.7193  -27.4772 C   0  0  2  0  0  0
  -19.8750   16.7980  -28.1600 C   0  0  2  0  0  0
  -18.1701   25.6207  -23.1010 C   0  0  0  0  0  0
  -19.8403   15.5359  -22.9731 C   0  0  0  0  0  0
  -19.9705   14.6285  -26.6964 C   0  0  0  0  0  0
  -19.4060   23.8143  -24.1590 N   0  0  0  0  0  0
  -17.2107   24.1027  -24.8014 N   0  0  0  0  0  0
  -21.7852   16.2131  -21.6069 N   0  0  0  0  0  0
  -20.7641   15.2327  -21.8662 N   0  0  0  0  0  0
  -19.6525   17.9280  -27.2476 N   0  0  0  0  0  0
  -19.6107   15.0212  -25.3389 N   0  0  0  0  0  0
  -23.8496   16.7247  -20.8186 O   0  0  0  0  0  0
  -20.0477   13.0544  -21.6016 O   0  0  0  0  0  0
  -16.0665   22.6953  -26.1366 O   0  0  0  0  0  0
  -19.2108   19.5224  -28.8003 O   0  0  0  0  0  0
  -21.6915   15.0208  -24.4502 O   0  0  0  0  0  0
  -23.9142   14.5547  -31.6016 H   0  0  0  0  0  0
  -23.9170   13.0206  -29.7371 H   0  0  0  0  0  0
  -22.3601   16.4729  -31.6554 H   0  0  0  0  0  0
  -22.4998   13.4015  -27.7618 H   0  0  0  0  0  0
  -23.4433   14.6623  -19.2049 H   0  0  0  0  0  0
  -21.7162   13.0211  -19.5726 H   0  0  0  0  0  0
  -20.4066   22.2543  -25.0925 H   0  0  0  0  0  0
  -17.9504   21.3894  -27.6555 H   0  0  0  0  0  0
  -19.7084   19.8889  -25.6222 H   0  0  0  0  0  0
  -21.3085   18.0270  -29.2608 H   0  0  0  0  0  0
  -19.9853   17.4560  -30.2618 H   0  0  0  0  0  0
  -21.4645   16.1929  -26.8073 H   0  0  0  0  0  0
  -18.9284   16.3376  -28.4539 H   0  0  0  0  0  0
  -18.2034   25.2506  -22.0753 H   0  0  0  0  0  0
  -17.2273   26.1526  -23.2240 H   0  0  0  0  0  0
  -18.9833   26.3342  -23.2293 H   0  0  0  0  0  0
  -18.8869   15.0170  -22.8490 H   0  0  0  0  0  0
  -19.6109   16.6016  -22.9775 H   0  0  0  0  0  0
  -20.5648   13.7156  -26.6098 H   0  0  0  0  0  0
  -19.0715   14.3287  -27.2354 H   0  0  0  0  0  0
  -16.3277   24.5626  -24.6214 H   0  0  0  0  0  0
  -21.7981   16.9304  -22.3152 H   0  0  0  0  0  0
  -19.5998   17.6983  -26.2672 H   0  0  0  0  0  0
  -18.6230   15.0745  -25.1364 H   0  0  0  0  0  0
  1  2  1  0  0  0
  1  3  2  0  0  0
  1 36  1  0  0  0
  2  4  2  0  0  0
  2 37  1  0  0  0
  3  5  1  0  0  0
  3 38  1  0  0  0
  4  6  1  0  0  0
  4 39  1  0  0  0
  5  6  2  0  0  0
  5 19  1  0  0  0
  6 20  1  0  0  0
  7  8  2  0  0  0
  7 11  1  0  0  0
  7 40  1  0  0  0
  8 12  1  0  0  0
  8 41  1  0  0  0
  9 10  2  0  0  0
  9 25  1  0  0  0
  9 42  1  0  0  0
 10 13  1  0  0  0
 10 15  1  0  0  0
 11 27  1  0  0  0
 11 31  2  0  0  0
 12 28  1  0  0  0
 12 32  2  0  0  0
 13 26  1  0  0  0
 13 33  2  0  0  0
 14 22  1  0  0  0
 14 25  2  0  0  0
 14 26  1  0  0  0
 15 16  2  0  0  0
 15 43  1  0  0  0
 16 17  1  0  0  0
 16 44  1  0  0  0
 17 29  1  0  0  0
 17 34  2  0  0  0
 18 23  1  0  0  0
 18 30  1  0  0  0
 18 35  2  0  0  0
 19 21  1  0  0  0
 19 45  1  0  0  0
 19 46  1  0  0  0
 20 21  1  0  0  0
 20 24  1  0  0  0
 20 47  1  0  0  0
 21 29  1  0  0  0
 21 48  1  0  0  0
 22 49  1  0  0  0
 22 50  1  0  0  0
 22 51  1  0  0  0
 23 28  1  0  0  0
 23 52  1  0  0  0
 23 53  1  0  0  0
 24 30  1  0  0  0
 24 54  1  0  0  0
 24 55  1  0  0  0
 26 56  1  0  0  0
 27 28  1  0  0  0
 27 57  1  0  0  0
 29 58  1  0  0  0
 30 59  1  0  0  0
M  END
> <s_i_glide_gridfile>
Cov2_glide-grid_1

> <i_i_glide_lignum>
86

> <i_i_glide_rotatable_bonds>
9

> <r_i_docking_score>
-8.55804

> <r_i_glide_ligand_efficiency>
-0.244515

> <r_i_glide_ligand_efficiency_sa>
-0.799826

> <r_i_glide_ligand_efficiency_ln>
-1.87868

> <r_i_glide_gscore>
-8.55804

> <r_i_glide_lipo>
-3.25108

> <r_i_glide_hbond>
-0.646648

> <r_i_glide_metal>
-0

> <r_i_glide_rewards>
-0.850877

> <r_i_glide_evdw>
-52.2244

> <r_i_glide_ecoul>
-11.4961

> <r_i_glide_erotb>
0.713542

> <r_i_glide_esite>
-0.187341

> <r_i_glide_emodel>
-89.4461

> <r_i_glide_energy>
-63.7205

> <r_i_glide_einternal>
11.3728

> <i_i_glide_confnum>
186

> <i_i_glide_posenum>
69

> <r_i_glide_eff_state_penalty>
0

$$$$
33
                    3D
 Structure written by MMmdl.
 58 61  0  0  1  0            999 V2000
  -26.8347   19.2411  -32.0315 C   0  0  0  0  0  0
  -25.9006   20.2594  -31.8319 C   0  0  0  0  0  0
  -20.6241   14.2218  -26.1064 C   0  0  0  0  0  0
  -22.2736   15.7290  -25.1926 C   0  0  0  0  0  0
  -20.0557   14.0770  -24.8464 C   0  0  0  0  0  0
  -21.7069   15.5805  -23.9288 C   0  0  0  0  0  0
  -26.4123   17.9154  -32.1237 C   0  0  0  0  0  0
  -24.5424   19.9545  -31.7326 C   0  0  0  0  0  0
  -21.7370   15.0490  -26.2890 C   0  0  0  0  0  0
  -20.5905   14.7547  -23.7436 C   0  0  0  0  0  0
  -25.0584   17.6073  -31.9952 C   0  0  0  0  0  0
  -24.1186   18.6253  -31.8222 C   0  0  0  0  0  0
  -19.4156   20.8981  -26.7974 C   0  0  0  0  0  0
  -18.0104   22.2340  -25.6021 C   0  0  0  0  0  0
  -18.9042   21.2499  -28.0091 C   0  0  0  0  0  0
  -17.7837   22.1927  -28.0039 C   0  0  0  0  0  0
  -22.3472   15.2365  -27.6186 C   0  0  0  0  0  0
  -19.4090   20.7729  -29.2994 C   0  0  0  0  0  0
  -22.2181   14.3948  -28.6696 C   0  0  0  0  0  0
  -20.4030   19.8734  -29.4617 C   0  0  0  0  0  0
  -20.0016   14.5945  -22.3626 C   0  0  0  0  0  0
  -22.7400   14.6634  -29.9856 C   0  0  0  0  0  0
  -20.8802   19.4567  -30.7604 C   0  0  0  0  0  0
  -24.3702   16.2761  -32.1473 C   0  0  0  0  0  0
  -22.7128   18.0540  -31.7766 C   0  0  2  0  0  0
  -22.9145   16.5112  -31.6963 C   0  0  1  0  0  0
  -18.9693   21.3795  -25.6011 N   0  0  0  0  0  0
  -17.4255   22.6209  -26.7716 N   0  0  0  0  0  0
  -18.7231   14.2202  -22.2829 N   0  0  0  0  0  0
  -21.9343   18.6341  -30.6678 N   0  0  0  0  0  0
  -22.6234   15.9465  -30.3722 N   0  0  0  0  0  0
  -17.2106   22.6209  -29.0025 O   0  0  0  0  0  0
  -20.6682   14.7958  -21.3476 O   0  0  0  0  0  0
  -23.2100   13.7722  -30.6901 O   0  0  0  0  0  0
  -20.3817   19.8208  -31.8265 O   0  0  0  0  0  0
  -27.8843   19.4802  -32.1245 H   0  0  0  0  0  0
  -26.2310   21.2857  -31.7683 H   0  0  0  0  0  0
  -20.1833   13.6893  -26.9360 H   0  0  0  0  0  0
  -23.1322   16.3737  -25.3127 H   0  0  0  0  0  0
  -19.2105   13.4124  -24.7443 H   0  0  0  0  0  0
  -22.1385   16.1188  -23.0937 H   0  0  0  0  0  0
  -27.1355   17.1340  -32.2921 H   0  0  0  0  0  0
  -23.8266   20.7526  -31.5974 H   0  0  0  0  0  0
  -20.2438   20.2070  -26.7268 H   0  0  0  0  0  0
  -17.6313   22.6660  -24.6801 H   0  0  0  0  0  0
  -22.9088   16.1532  -27.7419 H   0  0  0  0  0  0
  -18.9529   21.1766  -30.1980 H   0  0  0  0  0  0
  -21.7012   13.4513  -28.5814 H   0  0  0  0  0  0
  -20.8946   19.4278  -28.6093 H   0  0  0  0  0  0
  -24.3722   16.0236  -33.2041 H   0  0  0  0  0  0
  -24.8762   15.4552  -31.6427 H   0  0  0  0  0  0
  -22.2521   18.2684  -32.7453 H   0  0  0  0  0  0
  -22.2254   16.0424  -32.4016 H   0  0  0  0  0  0
  -16.6974   23.3161  -26.7644 H   0  0  0  0  0  0
  -18.1621   14.1384  -23.1173 H   0  0  0  0  0  0
  -18.3070   14.0976  -21.3729 H   0  0  0  0  0  0
  -22.2966   18.4546  -29.7457 H   0  0  0  0  0  0
  -22.0513   16.5320  -29.7872 H   0  0  0  0  0  0
  1  2  1  0  0  0
  1  7  2  0  0  0
  1 36  1  0  0  0
  2  8  2  0  0  0
  2 37  1  0  0  0
  3  5  2  0  0  0
  3  9  1  0  0  0
  3 38  1  0  0  0
  4  6  1  0  0  0
  4  9  2  0  0  0
  4 39  1  0  0  0
  5 10  1  0  0  0
  5 40  1  0  0  0
  6 10  2  0  0  0
  6 41  1  0  0  0
  7 11  1  0  0  0
  7 42  1  0  0  0
  8 12  1  0  0  0
  8 43  1  0  0  0
  9 17  1  0  0  0
 10 21  1  0  0  0
 11 12  2  0  0  0
 11 24  1  0  0  0
 12 25  1  0  0  0
 13 15  2  0  0  0
 13 27  1  0  0  0
 13 44  1  0  0  0
 14 27  2  0  0  0
 14 28  1  0  0  0
 14 45  1  0  0  0
 15 16  1  0  0  0
 15 18  1  0  0  0
 16 28  1  0  0  0
 16 32  2  0  0  0
 17 19  2  0  0  0
 17 46  1  0  0  0
 18 20  2  0  0  0
 18 47  1  0  0  0
 19 22  1  0  0  0
 19 48  1  0  0  0
 20 23  1  0  0  0
 20 49  1  0  0  0
 21 29  1  0  0  0
 21 33  2  0  0  0
 22 31  1  0  0  0
 22 34  2  0  0  0
 23 30  1  0  0  0
 23 35  2  0  0  0
 24 26  1  0  0  0
 24 50  1  0  0  0
 24 51  1  0  0  0
 25 26  1  0  0  0
 25 30  1  0  0  0
 25 52  1  0  0  0
 26 31  1  0  0  0
 26 53  1  0  0  0
 28 54  1  0  0  0
 29 55  1  0  0  0
 29 56  1  0  0  0
 30 57  1  0  0  0
 31 58  1  0  0  0
M  END
> <s_i_glide_gridfile>
Cov2_glide-grid_1

> <i_i_glide_lignum>
49

> <i_i_glide_rotatable_bonds>
9

> <r_i_docking_score>
-8.53127

> <r_i_glide_ligand_efficiency>
-0.24375

> <r_i_glide_ligand_efficiency_sa>
-0.797324

> <r_i_glide_ligand_efficiency_ln>
-1.8728

> <r_i_glide_gscore>
-8.53127

> <r_i_glide_lipo>
-4.08228

> <r_i_glide_hbond>
-0.20588

> <r_i_glide_metal>
-0

> <r_i_glide_rewards>
-1.11302

> <r_i_glide_evdw>
-57.0683

> <r_i_glide_ecoul>
-6.12066

> <r_i_glide_erotb>
0.641429

> <r_i_glide_esite>
0

> <r_i_glide_emodel>
-92.9653

> <r_i_glide_energy>
-63.1889

> <r_i_glide_einternal>
5.47316

> <i_i_glide_confnum>
24

> <i_i_glide_posenum>
292

> <r_i_glide_eff_state_penalty>
0

$$$$
16
                    3D
 Structure written by MMmdl.
 52 54  0  0  1  0            999 V2000
  -20.7325   13.2091  -29.0271 C   0  0  0  0  0  0
  -21.8138   14.0817  -28.9627 C   0  0  0  0  0  0
  -19.4319   13.6929  -29.1364 C   0  0  0  0  0  0
  -21.5909   15.4527  -29.0263 C   0  0  0  0  0  0
  -19.2109   15.0609  -29.2002 C   0  0  0  0  0  0
  -20.2831   15.9516  -29.1552 C   0  0  0  0  0  0
  -25.2170   19.9104  -32.4667 C   0  0  0  0  0  0
  -24.6665   18.7115  -32.1549 C   0  0  0  0  0  0
  -25.5348   17.5336  -32.2447 C   0  0  0  0  0  0
  -18.3545   23.8441  -24.6639 C   0  0  0  0  0  0
  -27.3733   19.0248  -32.9499 C   0  0  0  0  0  0
  -16.7597   22.7635  -25.8631 C   0  0  0  0  0  0
  -23.2943   18.5201  -31.6982 C   0  0  0  0  0  0
  -22.4348   19.4930  -31.3028 C   0  0  0  0  0  0
  -21.1249   19.1906  -30.7746 C   0  0  0  0  0  0
  -18.5731   20.2019  -27.1542 C   0  0  0  0  0  0
  -19.0516   23.0703  -25.7363 C   0  0  0  0  0  0
  -18.1159   21.6019  -27.5922 C   0  0  0  0  0  0
  -19.6037   18.0925  -27.9657 C   0  0  0  0  0  0
  -20.0019   17.4476  -29.3124 C   0  0  2  0  0  0
  -26.5139   20.0767  -32.8632 N   0  0  0  0  0  0
  -26.8103   17.8214  -32.6311 N   0  0  0  0  0  0
  -17.0587   23.5417  -24.8020 N   0  0  0  0  0  0
  -17.9446   22.4812  -26.4299 N   0  0  0  0  0  0
  -21.1241   18.1204  -29.9660 N   0  0  0  0  0  0
  -19.1415   19.4686  -28.1187 N   0  0  0  0  0  0
  -25.2059   16.3713  -32.0027 O   0  0  0  0  0  0
  -18.8824   24.5924  -23.8490 O   0  0  0  0  0  0
  -28.5499   19.1412  -33.2731 O   0  0  0  0  0  0
  -15.6404   22.3844  -26.2118 O   0  0  0  0  0  0
  -20.1226   19.8578  -31.0319 O   0  0  0  0  0  0
  -18.4120   19.7900  -26.0035 O   0  0  0  0  0  0
  -20.9086   12.1480  -28.9858 H   0  0  0  0  0  0
  -22.8201   13.6983  -28.8714 H   0  0  0  0  0  0
  -18.5921   13.0204  -29.1842 H   0  0  0  0  0  0
  -22.4425   16.1150  -28.9801 H   0  0  0  0  0  0
  -18.2011   15.4218  -29.3116 H   0  0  0  0  0  0
  -24.6907   20.8550  -32.4405 H   0  0  0  0  0  0
  -22.9489   17.4903  -31.6600 H   0  0  0  0  0  0
  -22.6810   20.5413  -31.3488 H   0  0  0  0  0  0
  -19.6080   23.7230  -26.4019 H   0  0  0  0  0  0
  -19.7170   22.3039  -25.3392 H   0  0  0  0  0  0
  -17.1749   21.4976  -28.1371 H   0  0  0  0  0  0
  -18.8369   22.0405  -28.2803 H   0  0  0  0  0  0
  -20.4562   18.0683  -27.2857 H   0  0  0  0  0  0
  -18.8130   17.5014  -27.4991 H   0  0  0  0  0  0
  -19.1514   17.5221  -30.0008 H   0  0  0  0  0  0
  -26.8887   20.9762  -33.1273 H   0  0  0  0  0  0
  -27.4228   17.0233  -32.6864 H   0  0  0  0  0  0
  -16.3778   23.8205  -24.1023 H   0  0  0  0  0  0
  -22.0263   17.7050  -29.7881 H   0  0  0  0  0  0
  -19.2807   19.8745  -29.0350 H   0  0  0  0  0  0
  1  2  1  0  0  0
  1  3  2  0  0  0
  1 33  1  0  0  0
  2  4  2  0  0  0
  2 34  1  0  0  0
  3  5  1  0  0  0
  3 35  1  0  0  0
  4  6  1  0  0  0
  4 36  1  0  0  0
  5  6  2  0  0  0
  5 37  1  0  0  0
  6 20  1  0  0  0
  7  8  2  0  0  0
  7 21  1  0  0  0
  7 38  1  0  0  0
  8  9  1  0  0  0
  8 13  1  0  0  0
  9 22  1  0  0  0
  9 27  2  0  0  0
 10 17  1  0  0  0
 10 23  1  0  0  0
 10 28  2  0  0  0
 11 21  1  0  0  0
 11 22  1  0  0  0
 11 29  2  0  0  0
 12 23  1  0  0  0
 12 24  1  0  0  0
 12 30  2  0  0  0
 13 14  2  0  0  0
 13 39  1  0  0  0
 14 15  1  0  0  0
 14 40  1  0  0  0
 15 25  1  0  0  0
 15 31  2  0  0  0
 16 18  1  0  0  0
 16 26  1  0  0  0
 16 32  2  0  0  0
 17 24  1  0  0  0
 17 41  1  0  0  0
 17 42  1  0  0  0
 18 24  1  0  0  0
 18 43  1  0  0  0
 18 44  1  0  0  0
 19 20  1  0  0  0
 19 26  1  0  0  0
 19 45  1  0  0  0
 19 46  1  0  0  0
 20 25  1  0  0  0
 20 47  1  0  0  0
 21 48  1  0  0  0
 22 49  1  0  0  0
 23 50  1  0  0  0
 25 51  1  0  0  0
 26 52  1  0  0  0
M  END
> <s_i_glide_gridfile>
Cov2_glide-grid_1

> <i_i_glide_lignum>
14

> <i_i_glide_rotatable_bonds>
10

> <r_i_docking_score>
-8.5036

> <r_i_glide_ligand_efficiency>
-0.265738

> <r_i_glide_ligand_efficiency_sa>
-0.843664

> <r_i_glide_ligand_efficiency_ln>
-1.90419

> <r_i_glide_gscore>
-8.5036

> <r_i_glide_lipo>
-2.70479

> <r_i_glide_hbond>
-0.700069

> <r_i_glide_metal>
-0

> <r_i_glide_rewards>
-1.60195

> <r_i_glide_evdw>
-53.1219

> <r_i_glide_ecoul>
-9.53655

> <r_i_glide_erotb>
0.720584

> <r_i_glide_esite>
-0.130795

> <r_i_glide_emodel>
-89.6434

> <r_i_glide_energy>
-62.6585

> <r_i_glide_einternal>
9.07769

> <i_i_glide_confnum>
172

> <i_i_glide_posenum>
323

> <r_i_glide_eff_state_penalty>
0

$$$$
24
                    3D
 Structure written by MMmdl.
 59 62  0  0  1  0            999 V2000
  -21.6066   12.6211  -29.8903 C   0  0  0  0  0  0
  -22.7293   12.8420  -29.1012 C   0  0  0  0  0  0
  -20.4167   13.2786  -29.6015 C   0  0  0  0  0  0
  -22.6838   13.7316  -28.0262 C   0  0  0  0  0  0
  -20.3822   14.2060  -28.5680 C   0  0  0  0  0  0
  -21.5035   14.4225  -27.7600 C   0  0  0  0  0  0
  -21.6015   19.5228  -19.6079 C   0  0  0  0  0  0
  -20.7386   20.1564  -32.0806 C   0  0  0  0  0  0
  -20.1521   21.2349  -19.2172 C   0  0  0  0  0  0
  -21.1136   19.2359  -20.8440 C   0  0  0  0  0  0
  -20.6856   20.4252  -30.7472 C   0  0  0  0  0  0
  -20.0538   20.1190  -21.3485 C   0  0  0  0  0  0
  -21.1802   21.7442  -30.3306 C   0  0  0  0  0  0
  -21.6690   22.1517  -32.6522 C   0  0  0  0  0  0
  -21.6503   18.1259  -21.6408 C   0  0  0  0  0  0
  -20.2105   19.4074  -29.8006 C   0  0  0  0  0  0
  -21.0172   17.5004  -22.6601 C   0  0  0  0  0  0
  -20.0371   19.5415  -28.4624 C   0  0  0  0  0  0
  -21.6249   16.4551  -23.4454 C   0  0  0  0  0  0
  -19.6101   18.4771  -27.5858 C   0  0  0  0  0  0
  -19.2107   14.9687  -28.0390 C   0  0  0  0  0  0
  -21.1895   15.4163  -26.6532 C   0  0  2  0  0  0
  -19.8623   16.0258  -27.1462 C   0  0  2  0  0  0
  -22.2628   23.1344  -33.6300 C   0  0  0  0  0  0
  -21.0888   14.7945  -25.2381 C   0  0  0  0  0  0
  -21.1472   20.5302  -18.8030 N   0  0  0  0  0  0
  -21.1980   21.0201  -33.0342 N   0  0  0  0  0  0
  -19.6109   21.0212  -20.4485 N   0  0  0  0  0  0
  -21.6441   22.5093  -31.3409 N   0  0  0  0  0  0
  -20.0876   17.2597  -27.8992 N   0  0  0  0  0  0
  -20.7501   15.8019  -24.2270 N   0  0  0  0  0  0
  -19.6125   20.1415  -22.4887 O   0  0  0  0  0  0
  -21.2098   22.2208  -29.2018 O   0  0  0  0  0  0
  -22.8325   16.2210  -23.4343 O   0  0  0  0  0  0
  -18.8865   18.6933  -26.6137 O   0  0  0  0  0  0
  -21.6501   11.9117  -30.7028 H   0  0  0  0  0  0
  -23.6106   12.2735  -29.3119 H   0  0  0  0  0  0
  -19.5377   13.0748  -30.1938 H   0  0  0  0  0  0
  -23.5550   13.8777  -27.4069 H   0  0  0  0  0  0
  -22.3957   18.9178  -19.1934 H   0  0  0  0  0  0
  -20.4085   19.1943  -32.4490 H   0  0  0  0  0  0
  -19.7272   22.0329  -18.6144 H   0  0  0  0  0  0
  -22.6453   17.7805  -21.3857 H   0  0  0  0  0  0
  -19.9804   18.4382  -30.2290 H   0  0  0  0  0  0
  -20.0105   17.7689  -22.9383 H   0  0  0  0  0  0
  -20.1993   20.4720  -27.9426 H   0  0  0  0  0  0
  -18.5446   15.3802  -28.8015 H   0  0  0  0  0  0
  -18.6224   14.2587  -27.4525 H   0  0  0  0  0  0
  -21.9684   16.1813  -26.6195 H   0  0  0  0  0  0
  -19.2107   16.2133  -26.2987 H   0  0  0  0  0  0
  -21.6058   23.9946  -33.7605 H   0  0  0  0  0  0
  -22.4123   22.6760  -34.6068 H   0  0  0  0  0  0
  -23.2325   23.4944  -33.2867 H   0  0  0  0  0  0
  -20.3180   14.0213  -25.2201 H   0  0  0  0  0  0
  -22.0228   14.2890  -24.9852 H   0  0  0  0  0  0
  -18.8896   21.6581  -20.8014 H   0  0  0  0  0  0
  -22.0087   23.4008  -31.0564 H   0  0  0  0  0  0
  -20.6849   17.1776  -28.7068 H   0  0  0  0  0  0
  -19.7730   16.0347  -24.1237 H   0  0  0  0  0  0
  1  2  1  0  0  0
  1  3  2  0  0  0
  1 36  1  0  0  0
  2  4  2  0  0  0
  2 37  1  0  0  0
  3  5  1  0  0  0
  3 38  1  0  0  0
  4  6  1  0  0  0
  4 39  1  0  0  0
  5  6  2  0  0  0
  5 21  1  0  0  0
  6 22  1  0  0  0
  7 10  2  0  0  0
  7 26  1  0  0  0
  7 40  1  0  0  0
  8 11  2  0  0  0
  8 27  1  0  0  0
  8 41  1  0  0  0
  9 26  2  0  0  0
  9 28  1  0  0  0
  9 42  1  0  0  0
 10 12  1  0  0  0
 10 15  1  0  0  0
 11 13  1  0  0  0
 11 16  1  0  0  0
 12 28  1  0  0  0
 12 32  2  0  0  0
 13 29  1  0  0  0
 13 33  2  0  0  0
 14 24  1  0  0  0
 14 27  2  0  0  0
 14 29  1  0  0  0
 15 17  2  0  0  0
 15 43  1  0  0  0
 16 18  2  0  0  0
 16 44  1  0  0  0
 17 19  1  0  0  0
 17 45  1  0  0  0
 18 20  1  0  0  0
 18 46  1  0  0  0
 19 31  1  0  0  0
 19 34  2  0  0  0
 20 30  1  0  0  0
 20 35  2  0  0  0
 21 23  1  0  0  0
 21 47  1  0  0  0
 21 48  1  0  0  0
 22 23  1  0  0  0
 22 25  1  0  0  0
 22 49  1  0  0  0
 23 30  1  0  0  0
 23 50  1  0  0  0
 24 51  1  0  0  0
 24 52  1  0  0  0
 24 53  1  0  0  0
 25 31  1  0  0  0
 25 54  1  0  0  0
 25 55  1  0  0  0
 28 56  1  0  0  0
 29 57  1  0  0  0
 30 58  1  0  0  0
 31 59  1  0  0  0
M  END
> <s_i_glide_gridfile>
Cov2_glide-grid_1

> <i_i_glide_lignum>
56

> <i_i_glide_rotatable_bonds>
9

> <r_i_docking_score>
-8.48254

> <r_i_glide_ligand_efficiency>
-0.242358

> <r_i_glide_ligand_efficiency_sa>
-0.79277

> <r_i_glide_ligand_efficiency_ln>
-1.86211

> <r_i_glide_gscore>
-8.48254

> <r_i_glide_lipo>
-3.14024

> <r_i_glide_hbond>
-0.633603

> <r_i_glide_metal>
-0

> <r_i_glide_rewards>
-0.596897

> <r_i_glide_evdw>
-43.0695

> <r_i_glide_ecoul>
-16.9287

> <r_i_glide_erotb>
0.724579

> <r_i_glide_esite>
-0.143608

> <r_i_glide_emodel>
-85.7528

> <r_i_glide_energy>
-59.9982

> <r_i_glide_einternal>
8.45123

> <i_i_glide_confnum>
112

> <i_i_glide_posenum>
387

> <r_i_glide_eff_state_penalty>
0

$$$$
47
                    3D
 Structure written by MMmdl.
 56 59  0  0  1  0            999 V2000
  -21.7128   12.6921  -29.9143 C   0  0  0  0  0  0
  -22.8123   13.4134  -30.3639 C   0  0  0  0  0  0
  -20.9430   13.1603  -28.8532 C   0  0  0  0  0  0
  -23.1567   14.6190  -29.7636 C   0  0  0  0  0  0
  -20.5414   14.8594  -27.1088 C   0  0  0  0  0  0
  -20.8809   16.0760  -26.5260 C   0  0  0  0  0  0
  -22.7038   16.3540  -28.0722 C   0  0  0  0  0  0
  -21.2803   14.3703  -28.2073 C   0  0  0  0  0  0
  -22.3953   15.1191  -28.6818 C   0  0  0  0  0  0
  -21.9256   16.8633  -27.0228 C   0  0  0  0  0  0
  -25.8623   17.8903  -31.9101 C   0  0  0  0  0  0
  -24.7586   17.0590  -32.3455 C   0  0  0  0  0  0
  -18.0034   20.8652  -26.5662 C   0  0  0  0  0  0
  -25.5439   18.9751  -31.1783 C   0  0  0  0  0  0
  -19.5384   20.9306  -28.4437 C   0  0  0  0  0  0
  -19.1548   20.3984  -27.1372 C   0  0  0  0  0  0
  -23.4894   17.3867  -32.0095 C   0  0  0  0  0  0
  -17.1138   21.8149  -27.2129 C   0  0  0  0  0  0
  -23.1677   18.5878  -31.2074 C   0  0  0  0  0  0
  -19.9112   19.3627  -26.4480 C   0  0  0  0  0  0
  -23.6433   20.3732  -28.5778 C   0  0  0  0  0  0
  -24.0184   20.5996  -30.0580 C   0  0  0  0  0  0
  -23.6434   18.8101  -26.6010 C   0  0  0  0  0  0
  -22.1981   18.2478  -26.3920 C   0  0  2  0  0  0
  -18.8106   21.8211  -29.0232 N   0  0  0  0  0  0
  -17.6287   22.2214  -28.4053 N   0  0  0  0  0  0
  -24.2648   19.3473  -30.8161 N   0  0  0  0  0  0
  -22.4108   16.6281  -32.4016 N   0  0  0  0  0  0
  -21.2086   19.2528  -26.7987 N   0  0  0  0  0  0
  -23.9995   19.2251  -27.9709 N   0  0  0  0  0  0
  -16.0108   22.1631  -26.7975 O   0  0  0  0  0  0
  -22.0064   18.8978  -30.9101 O   0  0  0  0  0  0
  -19.3896   18.6359  -25.5997 O   0  0  0  0  0  0
  -23.0107   21.2554  -28.0019 O   0  0  0  0  0  0
  -21.4500   11.7677  -30.3992 H   0  0  0  0  0  0
  -23.4007   13.0429  -31.1886 H   0  0  0  0  0  0
  -20.0807   12.6120  -28.5127 H   0  0  0  0  0  0
  -24.0044   15.1850  -30.1231 H   0  0  0  0  0  0
  -19.7081   14.2881  -26.7265 H   0  0  0  0  0  0
  -20.2971   16.4104  -25.6820 H   0  0  0  0  0  0
  -23.5444   16.8899  -28.4749 H   0  0  0  0  0  0
  -26.8863   17.6448  -32.1554 H   0  0  0  0  0  0
  -24.9566   16.1749  -32.9325 H   0  0  0  0  0  0
  -17.6763   20.5082  -25.6016 H   0  0  0  0  0  0
  -26.2947   19.6494  -30.7909 H   0  0  0  0  0  0
  -20.4322   20.6031  -28.9704 H   0  0  0  0  0  0
  -23.1795   21.1109  -30.5323 H   0  0  0  0  0  0
  -24.8569   21.2905  -30.1360 H   0  0  0  0  0  0
  -23.8031   19.6564  -25.9275 H   0  0  0  0  0  0
  -24.3684   18.0590  -26.2833 H   0  0  0  0  0  0
  -22.1051   18.1135  -25.3115 H   0  0  0  0  0  0
  -17.0814   22.8893  -28.9261 H   0  0  0  0  0  0
  -21.4696   16.8871  -32.1278 H   0  0  0  0  0  0
  -22.4923   15.8853  -33.0896 H   0  0  0  0  0  0
  -21.5704   19.9269  -27.4589 H   0  0  0  0  0  0
  -24.5689   18.5765  -28.4960 H   0  0  0  0  0  0
  1  2  1  0  0  0
  1  3  2  0  0  0
  1 35  1  0  0  0
  2  4  2  0  0  0
  2 36  1  0  0  0
  3  8  1  0  0  0
  3 37  1  0  0  0
  4  9  1  0  0  0
  4 38  1  0  0  0
  5  6  2  0  0  0
  5  8  1  0  0  0
  5 39  1  0  0  0
  6 10  1  0  0  0
  6 40  1  0  0  0
  7  9  1  0  0  0
  7 10  2  0  0  0
  7 41  1  0  0  0
  8  9  2  0  0  0
 10 24  1  0  0  0
 11 12  1  0  0  0
 11 14  2  0  0  0
 11 42  1  0  0  0
 12 17  2  0  0  0
 12 43  1  0  0  0
 13 16  2  0  0  0
 13 18  1  0  0  0
 13 44  1  0  0  0
 14 27  1  0  0  0
 14 45  1  0  0  0
 15 16  1  0  0  0
 15 25  2  0  0  0
 15 46  1  0  0  0
 16 20  1  0  0  0
 17 19  1  0  0  0
 17 28  1  0  0  0
 18 26  1  0  0  0
 18 31  2  0  0  0
 19 27  1  0  0  0
 19 32  2  0  0  0
 20 29  1  0  0  0
 20 33  2  0  0  0
 21 22  1  0  0  0
 21 30  1  0  0  0
 21 34  2  0  0  0
 22 27  1  0  0  0
 22 47  1  0  0  0
 22 48  1  0  0  0
 23 24  1  0  0  0
 23 30  1  0  0  0
 23 49  1  0  0  0
 23 50  1  0  0  0
 24 29  1  0  0  0
 24 51  1  0  0  0
 25 26  1  0  0  0
 26 52  1  0  0  0
 28 53  1  0  0  0
 28 54  1  0  0  0
 29 55  1  0  0  0
 30 56  1  0  0  0
M  END
> <s_i_glide_gridfile>
Cov2_glide-grid_1

> <i_i_glide_lignum>
28

> <i_i_glide_rotatable_bonds>
9

> <r_i_docking_score>
-8.47866

> <r_i_glide_ligand_efficiency>
-0.249372

> <r_i_glide_ligand_efficiency_sa>
-0.80787

> <r_i_glide_ligand_efficiency_ln>
-1.87317

> <r_i_glide_gscore>
-8.47866

> <r_i_glide_lipo>
-3.99122

> <r_i_glide_hbond>
-0.839185

> <r_i_glide_metal>
-0

> <r_i_glide_rewards>
-0.436975

> <r_i_glide_evdw>
-49.2403

> <r_i_glide_ecoul>
-9.44565

> <r_i_glide_erotb>
0.669815

> <r_i_glide_esite>
-0.00223197

> <r_i_glide_emodel>
-85.2623

> <r_i_glide_energy>
-58.686

> <r_i_glide_einternal>
6.12428

> <i_i_glide_confnum>
22

> <i_i_glide_posenum>
171

> <r_i_glide_eff_state_penalty>
0

$$$$
88
                    3D
 Structure written by MMmdl.
 53 56  0  0  1  0            999 V2000
  -23.2100   14.7802  -30.3753 C   0  0  0  0  0  0
  -22.6058   16.0101  -30.6415 C   0  0  0  0  0  0
  -22.7951   14.0134  -29.2860 C   0  0  0  0  0  0
  -21.5574   16.4648  -29.8401 C   0  0  0  0  0  0
  -21.7614   14.4785  -28.4712 C   0  0  0  0  0  0
  -21.1179   15.6879  -28.7646 C   0  0  0  0  0  0
  -21.8909   13.7732  -19.5438 C   0  0  0  0  0  0
  -22.7578   14.6195  -20.1467 C   0  0  0  0  0  0
  -20.5492   13.6328  -20.0807 C   0  0  0  0  0  0
  -19.3744   22.0583  -25.5430 C   0  0  0  0  0  0
  -20.2656   14.3368  -21.1922 C   0  0  0  0  0  0
  -18.2763   23.7597  -24.5072 C   0  0  0  0  0  0
  -18.3021   21.6595  -26.2875 C   0  0  0  0  0  0
  -22.4098   15.4129  -21.3256 C   0  0  0  0  0  0
  -17.0658   22.4253  -26.1171 C   0  0  0  0  0  0
  -18.3182   20.4937  -27.1814 C   0  0  0  0  0  0
  -19.1698   19.4569  -27.0274 C   0  0  0  0  0  0
  -19.2116   18.3016  -27.8949 C   0  0  0  0  0  0
  -20.4906   14.9358  -24.2526 C   0  0  0  0  0  0
  -21.1009   13.7857  -27.3028 C   0  0  0  0  0  0
  -19.9354   15.8889  -27.8311 C   0  0  2  0  0  0
  -20.1545   14.8409  -26.7145 C   0  0  1  0  0  0
  -20.8018   15.8975  -23.0920 C   0  0  0  0  0  0
  -19.3750   23.1153  -24.6838 N   0  0  0  0  0  0
  -17.1521   23.4209  -25.2030 N   0  0  0  0  0  0
  -21.1490   15.1760  -21.8470 N   0  0  0  0  0  0
  -19.7580   17.2453  -27.2893 N   0  0  0  0  0  0
  -20.7004   15.4273  -25.4784 N   0  0  0  0  0  0
  -23.2217   16.2212  -21.7835 O   0  0  0  0  0  0
  -16.0110   22.2171  -26.7090 O   0  0  0  0  0  0
  -18.8132   18.2738  -29.0534 O   0  0  0  0  0  0
  -20.0103   13.8216  -24.0595 O   0  0  0  0  0  0
  -24.0082   14.4270  -31.0126 H   0  0  0  0  0  0
  -22.9350   16.6008  -31.4863 H   0  0  0  0  0  0
  -23.2656   13.0628  -29.0885 H   0  0  0  0  0  0
  -21.0687   17.3976  -30.0898 H   0  0  0  0  0  0
  -22.1910   13.1961  -18.6806 H   0  0  0  0  0  0
  -23.7577   14.7242  -19.7550 H   0  0  0  0  0  0
  -19.8135   13.0031  -19.6018 H   0  0  0  0  0  0
  -20.3142   21.5304  -25.6158 H   0  0  0  0  0  0
  -19.2859   14.3260  -21.6530 H   0  0  0  0  0  0
  -18.2042   24.5882  -23.8075 H   0  0  0  0  0  0
  -17.6112   20.4661  -28.0024 H   0  0  0  0  0  0
  -19.8695   19.4418  -26.2041 H   0  0  0  0  0  0
  -20.5177   12.9438  -27.6770 H   0  0  0  0  0  0
  -21.8016   13.3999  -26.5630 H   0  0  0  0  0  0
  -19.0493   15.5992  -28.4017 H   0  0  0  0  0  0
  -19.2051   14.3529  -26.4942 H   0  0  0  0  0  0
  -19.8749   16.4390  -22.8979 H   0  0  0  0  0  0
  -21.5340   16.6502  -23.3894 H   0  0  0  0  0  0
  -16.2929   23.9132  -25.0058 H   0  0  0  0  0  0
  -20.0408   17.3655  -26.3306 H   0  0  0  0  0  0
  -21.3109   16.2218  -25.5875 H   0  0  0  0  0  0
  1  2  1  0  0  0
  1  3  2  0  0  0
  1 33  1  0  0  0
  2  4  2  0  0  0
  2 34  1  0  0  0
  3  5  1  0  0  0
  3 35  1  0  0  0
  4  6  1  0  0  0
  4 36  1  0  0  0
  5  6  2  0  0  0
  5 20  1  0  0  0
  6 21  1  0  0  0
  7  8  2  0  0  0
  7  9  1  0  0  0
  7 37  1  0  0  0
  8 14  1  0  0  0
  8 38  1  0  0  0
  9 11  2  0  0  0
  9 39  1  0  0  0
 10 13  2  0  0  0
 10 24  1  0  0  0
 10 40  1  0  0  0
 11 26  1  0  0  0
 11 41  1  0  0  0
 12 24  2  0  0  0
 12 25  1  0  0  0
 12 42  1  0  0  0
 13 15  1  0  0  0
 13 16  1  0  0  0
 14 26  1  0  0  0
 14 29  2  0  0  0
 15 25  1  0  0  0
 15 30  2  0  0  0
 16 17  2  0  0  0
 16 43  1  0  0  0
 17 18  1  0  0  0
 17 44  1  0  0  0
 18 27  1  0  0  0
 18 31  2  0  0  0
 19 23  1  0  0  0
 19 28  1  0  0  0
 19 32  2  0  0  0
 20 22  1  0  0  0
 20 45  1  0  0  0
 20 46  1  0  0  0
 21 22  1  0  0  0
 21 27  1  0  0  0
 21 47  1  0  0  0
 22 28  1  0  0  0
 22 48  1  0  0  0
 23 26  1  0  0  0
 23 49  1  0  0  0
 23 50  1  0  0  0
 25 51  1  0  0  0
 27 52  1  0  0  0
 28 53  1  0  0  0
M  END
> <s_i_glide_gridfile>
Cov2_glide-grid_1

> <i_i_glide_lignum>
66

> <i_i_glide_rotatable_bonds>
8

> <r_i_docking_score>
-8.47634

> <r_i_glide_ligand_efficiency>
-0.264886

> <r_i_glide_ligand_efficiency_sa>
-0.84096

> <r_i_glide_ligand_efficiency_ln>
-1.89808

> <r_i_glide_gscore>
-8.47634

> <r_i_glide_lipo>
-3.39184

> <r_i_glide_hbond>
-0.582223

> <r_i_glide_metal>
-0

> <r_i_glide_rewards>
-1.20389

> <r_i_glide_evdw>
-49.9132

> <r_i_glide_ecoul>
-8.77343

> <r_i_glide_erotb>
0.641114

> <r_i_glide_esite>
-0.127833

> <r_i_glide_emodel>
-86.0252

> <r_i_glide_energy>
-58.6866

> <r_i_glide_einternal>
6.86489

> <i_i_glide_confnum>
5

> <i_i_glide_posenum>
294

> <r_i_glide_eff_state_penalty>
0

$$$$
70
                    3D
 Structure written by MMmdl.
 53 56  0  0  1  0            999 V2000
  -24.4631   17.4327  -32.4021 C   0  0  0  0  0  0
  -23.4552   18.3912  -32.2959 C   0  0  0  0  0  0
  -24.3456   16.2213  -31.7234 C   0  0  0  0  0  0
  -22.3221   18.1378  -31.5226 C   0  0  0  0  0  0
  -23.2119   15.9606  -30.9505 C   0  0  0  0  0  0
  -22.1992   16.9221  -30.8458 C   0  0  0  0  0  0
  -18.4309   21.3137  -27.9916 C   0  0  0  0  0  0
  -18.1539   20.4159  -27.0215 C   0  0  0  0  0  0
  -19.8836   13.6238  -23.3784 C   0  0  0  0  0  0
  -20.7646   14.1203  -21.3397 C   0  0  0  0  0  0
  -20.6717   14.4986  -24.0586 C   0  0  0  0  0  0
  -19.7270   21.4207  -28.6222 C   0  0  0  0  0  0
  -19.1217   19.4646  -26.5118 C   0  0  0  0  0  0
  -21.6066   15.2994  -23.2700 C   0  0  0  0  0  0
  -20.6491   14.6669  -25.5088 C   0  0  0  0  0  0
  -20.0112   13.8543  -26.3871 C   0  0  0  0  0  0
  -20.0281   14.0618  -27.8160 C   0  0  0  0  0  0
  -21.8353   17.6172  -27.7352 C   0  0  0  0  0  0
  -22.9403   14.7975  -30.0262 C   0  0  0  0  0  0
  -21.1076   16.4601  -29.8913 C   0  0  2  0  0  0
  -21.4670   14.9654  -29.6515 C   0  0  1  0  0  0
  -21.4981   18.7076  -26.6928 C   0  0  0  0  0  0
  -19.9337   13.4187  -22.0266 N   0  0  0  0  0  0
  -21.5733   15.0379  -21.9437 N   0  0  0  0  0  0
  -20.6361   20.5415  -28.1228 N   0  0  0  0  0  0
  -20.3628   19.5690  -27.0969 N   0  0  0  0  0  0
  -21.1999   14.5053  -28.2936 N   0  0  0  0  0  0
  -20.9660   17.3724  -28.7352 N   0  0  0  0  0  0
  -19.9995   22.2207  -29.5140 O   0  0  0  0  0  0
  -18.8132   18.6491  -25.6414 O   0  0  0  0  0  0
  -22.3984   16.1300  -23.7037 O   0  0  0  0  0  0
  -19.0477   13.8368  -28.5236 O   0  0  0  0  0  0
  -22.8881   16.9975  -27.6085 O   0  0  0  0  0  0
  -25.3405   17.6344  -32.9979 H   0  0  0  0  0  0
  -23.5622   19.3383  -32.8018 H   0  0  0  0  0  0
  -25.1475   15.5027  -31.7904 H   0  0  0  0  0  0
  -21.5549   18.8938  -31.4415 H   0  0  0  0  0  0
  -17.6584   21.9933  -28.3224 H   0  0  0  0  0  0
  -17.1637   20.3961  -26.5884 H   0  0  0  0  0  0
  -19.1649   13.0210  -23.9102 H   0  0  0  0  0  0
  -20.8486   14.0028  -20.2610 H   0  0  0  0  0  0
  -21.1953   15.5165  -25.9037 H   0  0  0  0  0  0
  -19.4322   12.9999  -26.0709 H   0  0  0  0  0  0
  -23.1455   13.8141  -30.4521 H   0  0  0  0  0  0
  -23.5848   14.9045  -29.1503 H   0  0  0  0  0  0
  -20.1464   16.4695  -30.4018 H   0  0  0  0  0  0
  -20.8961   14.3940  -30.3913 H   0  0  0  0  0  0
  -22.3787   19.3389  -26.5631 H   0  0  0  0  0  0
  -21.3360   18.2172  -25.7318 H   0  0  0  0  0  0
  -22.2107   15.5894  -21.3960 H   0  0  0  0  0  0
  -21.5798   20.4713  -28.4735 H   0  0  0  0  0  0
  -21.9275   14.7137  -27.6271 H   0  0  0  0  0  0
  -20.1037   17.8949  -28.7185 H   0  0  0  0  0  0
  1  2  1  0  0  0
  1  3  2  0  0  0
  1 34  1  0  0  0
  2  4  2  0  0  0
  2 35  1  0  0  0
  3  5  1  0  0  0
  3 36  1  0  0  0
  4  6  1  0  0  0
  4 37  1  0  0  0
  5  6  2  0  0  0
  5 19  1  0  0  0
  6 20  1  0  0  0
  7  8  2  0  0  0
  7 12  1  0  0  0
  7 38  1  0  0  0
  8 13  1  0  0  0
  8 39  1  0  0  0
  9 11  2  0  0  0
  9 23  1  0  0  0
  9 40  1  0  0  0
 10 23  2  0  0  0
 10 24  1  0  0  0
 10 41  1  0  0  0
 11 14  1  0  0  0
 11 15  1  0  0  0
 12 25  1  0  0  0
 12 29  2  0  0  0
 13 26  1  0  0  0
 13 30  2  0  0  0
 14 24  1  0  0  0
 14 31  2  0  0  0
 15 16  2  0  0  0
 15 42  1  0  0  0
 16 17  1  0  0  0
 16 43  1  0  0  0
 17 27  1  0  0  0
 17 32  2  0  0  0
 18 22  1  0  0  0
 18 28  1  0  0  0
 18 33  2  0  0  0
 19 21  1  0  0  0
 19 44  1  0  0  0
 19 45  1  0  0  0
 20 21  1  0  0  0
 20 28  1  0  0  0
 20 46  1  0  0  0
 21 27  1  0  0  0
 21 47  1  0  0  0
 22 26  1  0  0  0
 22 48  1  0  0  0
 22 49  1  0  0  0
 24 50  1  0  0  0
 25 26  1  0  0  0
 25 51  1  0  0  0
 27 52  1  0  0  0
 28 53  1  0  0  0
M  END
> <s_i_glide_gridfile>
Cov2_glide-grid_1

> <i_i_glide_lignum>
62

> <i_i_glide_rotatable_bonds>
8

> <r_i_docking_score>
-8.45008

> <r_i_glide_ligand_efficiency>
-0.256063

> <r_i_glide_ligand_efficiency_sa>
-0.821331

> <r_i_glide_ligand_efficiency_ln>
-1.87925

> <r_i_glide_gscore>
-8.45008

> <r_i_glide_lipo>
-3.13481

> <r_i_glide_hbond>
-0.798433

> <r_i_glide_metal>
-0

> <r_i_glide_rewards>
-1.32395

> <r_i_glide_evdw>
-52.8229

> <r_i_glide_ecoul>
-7.58642

> <r_i_glide_erotb>
0.597722

> <r_i_glide_esite>
-0.0115028

> <r_i_glide_emodel>
-87.8588

> <r_i_glide_energy>
-60.4093

> <r_i_glide_einternal>
6.50142

> <i_i_glide_confnum>
126

> <i_i_glide_posenum>
247

> <r_i_glide_eff_state_penalty>
0

$$$$
0
                    3D
 Structure written by MMmdl.
 55 58  0  0  1  0            999 V2000
  -21.0460   12.9984  -29.6016 C   0  0  0  0  0  0
  -22.2916   13.0863  -28.9879 C   0  0  0  0  0  0
  -20.1408   14.0533  -29.5307 C   0  0  0  0  0  0
  -22.6502   14.2385  -28.2928 C   0  0  0  0  0  0
  -19.6176   16.3556  -28.8012 C   0  0  0  0  0  0
  -19.9933   17.5160  -28.1304 C   0  0  0  0  0  0
  -22.1124   16.5292  -27.5368 C   0  0  0  0  0  0
  -20.4915   15.2481  -28.8578 C   0  0  0  0  0  0
  -21.7652   15.3396  -28.2214 C   0  0  0  0  0  0
  -21.2391   17.6213  -27.4929 C   0  0  0  0  0  0
  -23.7514   17.0579  -32.4396 C   0  0  0  0  0  0
  -22.4517   17.4262  -32.4005 C   0  0  0  0  0  0
  -19.2264   22.8051  -24.7256 C   0  0  0  0  0  0
  -18.2924   21.4857  -26.5195 C   0  0  0  0  0  0
  -18.1039   23.5507  -24.7661 C   0  0  0  0  0  0
  -19.3504   21.6947  -25.6778 C   0  0  0  0  0  0
  -24.8300   17.9236  -32.0161 C   0  0  0  0  0  0
  -22.0015   18.7188  -31.9231 C   0  0  0  0  0  0
  -17.0340   22.2152  -26.4303 C   0  0  0  0  0  0
  -20.5692   20.8930  -25.6996 C   0  0  0  0  0  0
  -22.6117   20.8281  -29.4056 C   0  0  0  0  0  0
  -22.7556   20.8826  -30.9442 C   0  0  0  0  0  0
  -22.9964   19.4952  -27.3084 C   0  0  0  0  0  0
  -21.6810   18.8901  -26.7382 C   0  0  2  0  0  0
  -17.0516   23.2889  -25.6003 N   0  0  0  0  0  0
  -24.4028   19.1445  -31.6006 N   0  0  0  0  0  0
  -23.0252   19.5521  -31.5359 N   0  0  0  0  0  0
  -20.6074   19.8813  -26.5926 N   0  0  0  0  0  0
  -22.9971   19.7155  -28.7571 N   0  0  0  0  0  0
  -26.0149   17.6039  -32.0189 O   0  0  0  0  0  0
  -20.8101   19.0213  -31.8612 O   0  0  0  0  0  0
  -16.0106   21.8219  -26.9741 O   0  0  0  0  0  0
  -21.5166   21.1161  -24.9394 O   0  0  0  0  0  0
  -22.1687   21.8168  -28.8234 O   0  0  0  0  0  0
  -20.7735   12.0964  -30.1289 H   0  0  0  0  0  0
  -22.9782   12.2536  -29.0434 H   0  0  0  0  0  0
  -19.1741   13.9739  -30.0017 H   0  0  0  0  0  0
  -23.6094   14.3033  -27.8076 H   0  0  0  0  0  0
  -18.6542   16.2976  -29.2883 H   0  0  0  0  0  0
  -19.2940   18.3359  -28.1259 H   0  0  0  0  0  0
  -23.0778   16.5790  -27.0541 H   0  0  0  0  0  0
  -24.0195   16.0843  -32.8167 H   0  0  0  0  0  0
  -21.6940   16.7324  -32.7426 H   0  0  0  0  0  0
  -19.9944   23.0229  -23.9986 H   0  0  0  0  0  0
  -18.3050   20.7102  -27.2676 H   0  0  0  0  0  0
  -17.8823   24.3467  -24.0668 H   0  0  0  0  0  0
  -21.8281   21.2949  -31.3499 H   0  0  0  0  0  0
  -23.5405   21.5941  -31.2078 H   0  0  0  0  0  0
  -23.2585   20.4183  -26.7864 H   0  0  0  0  0  0
  -23.8249   18.8174  -27.0927 H   0  0  0  0  0  0
  -21.8912   18.5409  -25.7229 H   0  0  0  0  0  0
  -16.1636   23.7546  -25.4772 H   0  0  0  0  0  0
  -25.0329   19.8576  -31.2615 H   0  0  0  0  0  0
  -19.8101   19.7545  -27.1967 H   0  0  0  0  0  0
  -23.3187   18.9366  -29.3116 H   0  0  0  0  0  0
  1  2  1  0  0  0
  1  3  2  0  0  0
  1 35  1  0  0  0
  2  4  2  0  0  0
  2 36  1  0  0  0
  3  8  1  0  0  0
  3 37  1  0  0  0
  4  9  1  0  0  0
  4 38  1  0  0  0
  5  6  2  0  0  0
  5  8  1  0  0  0
  5 39  1  0  0  0
  6 10  1  0  0  0
  6 40  1  0  0  0
  7  9  1  0  0  0
  7 10  2  0  0  0
  7 41  1  0  0  0
  8  9  2  0  0  0
 10 24  1  0  0  0
 11 12  2  0  0  0
 11 17  1  0  0  0
 11 42  1  0  0  0
 12 18  1  0  0  0
 12 43  1  0  0  0
 13 15  2  0  0  0
 13 16  1  0  0  0
 13 44  1  0  0  0
 14 16  2  0  0  0
 14 19  1  0  0  0
 14 45  1  0  0  0
 15 25  1  0  0  0
 15 46  1  0  0  0
 16 20  1  0  0  0
 17 26  1  0  0  0
 17 30  2  0  0  0
 18 27  1  0  0  0
 18 31  2  0  0  0
 19 25  1  0  0  0
 19 32  2  0  0  0
 20 28  1  0  0  0
 20 33  2  0  0  0
 21 22  1  0  0  0
 21 29  1  0  0  0
 21 34  2  0  0  0
 22 27  1  0  0  0
 22 47  1  0  0  0
 22 48  1  0  0  0
 23 24  1  0  0  0
 23 29  1  0  0  0
 23 49  1  0  0  0
 23 50  1  0  0  0
 24 28  1  0  0  0
 24 51  1  0  0  0
 25 52  1  0  0  0
 26 27  1  0  0  0
 26 53  1  0  0  0
 28 54  1  0  0  0
 29 55  1  0  0  0
M  END
> <s_i_glide_gridfile>
Cov2_glide-grid_1

> <i_i_glide_lignum>
20

> <i_i_glide_rotatable_bonds>
9

> <r_i_docking_score>
-8.43222

> <r_i_glide_ligand_efficiency>
-0.248006

> <r_i_glide_ligand_efficiency_sa>
-0.803445

> <r_i_glide_ligand_efficiency_ln>
-1.86291

> <r_i_glide_gscore>
-8.43222

> <r_i_glide_lipo>
-3.23974

> <r_i_glide_hbond>
-0.608

> <r_i_glide_metal>
-0

> <r_i_glide_rewards>
-0.348352

> <r_i_glide_evdw>
-48.2077

> <r_i_glide_ecoul>
-15.8941

> <r_i_glide_erotb>
0.571888

> <r_i_glide_esite>
-0.0135076

> <r_i_glide_emodel>
-93.6468

> <r_i_glide_energy>
-64.1018

> <r_i_glide_einternal>
6.44966

> <i_i_glide_confnum>
51

> <i_i_glide_posenum>
310

> <r_i_glide_eff_state_penalty>
0

$$$$
37
                    3D
 Structure written by MMmdl.
 50 53  0  0  1  0            999 V2000
  -23.4910   15.4108  -31.0495 C   0  0  0  0  0  0
  -22.7702   16.5975  -31.1516 C   0  0  0  0  0  0
  -23.0452   14.3867  -30.2125 C   0  0  0  0  0  0
  -21.6113   16.7700  -30.3997 C   0  0  0  0  0  0
  -21.8877   14.5601  -29.4561 C   0  0  0  0  0  0
  -21.1679   15.7551  -29.5485 C   0  0  0  0  0  0
  -22.3741   15.3179  -20.9724 C   0  0  0  0  0  0
  -21.5910   14.2179  -20.9406 C   0  0  0  0  0  0
  -20.0106   20.6097  -24.3355 C   0  0  0  0  0  0
  -19.4179   20.3200  -26.7068 C   0  0  0  0  0  0
  -20.3065   19.2904  -24.2867 C   0  0  0  0  0  0
  -19.7353   18.9955  -26.6135 C   0  0  0  0  0  0
  -19.5109   21.2581  -25.5660 C   0  0  0  0  0  0
  -22.4101   16.2213  -22.0985 C   0  0  0  0  0  0
  -20.6665   13.8730  -21.9999 C   0  0  0  0  0  0
  -19.6105   18.0928  -27.7573 C   0  0  0  0  0  0
  -20.3738   14.6239  -25.5191 C   0  0  0  0  0  0
  -21.3004   13.6365  -28.4118 C   0  0  0  0  0  0
  -19.9832   15.7580  -28.6003 C   0  0  2  0  0  0
  -19.9837   14.3180  -28.0026 C   0  0  1  0  0  0
  -19.6665   14.6137  -24.1484 C   0  0  0  0  0  0
  -20.1680   18.4781  -25.3943 N   0  0  0  0  0  0
  -21.4186   15.9882  -22.9961 N   0  0  0  0  0  0
  -20.6012   14.8018  -23.0108 N   0  0  0  0  0  0
  -20.1094   16.8477  -27.6193 N   0  0  0  0  0  0
  -19.6330   14.2219  -26.5697 N   0  0  0  0  0  0
  -19.2036   22.4448  -25.6383 O   0  0  0  0  0  0
  -23.2853   17.0597  -22.2902 O   0  0  0  0  0  0
  -20.0141   12.8331  -21.9736 O   0  0  0  0  0  0
  -19.0590   18.4409  -28.8001 O   0  0  0  0  0  0
  -21.5189   15.0616  -25.6452 O   0  0  0  0  0  0
  -24.4109   15.3014  -31.6019 H   0  0  0  0  0  0
  -23.1142   17.3859  -31.8080 H   0  0  0  0  0  0
  -23.6108   13.4721  -30.1326 H   0  0  0  0  0  0
  -21.0658   17.6988  -30.4766 H   0  0  0  0  0  0
  -23.0333   15.5315  -20.1420 H   0  0  0  0  0  0
  -21.6198   13.5673  -20.0760 H   0  0  0  0  0  0
  -20.1173   21.2004  -23.4368 H   0  0  0  0  0  0
  -19.0737   20.7154  -27.6526 H   0  0  0  0  0  0
  -20.6446   18.8030  -23.3838 H   0  0  0  0  0  0
  -21.1193   12.6269  -28.7837 H   0  0  0  0  0  0
  -21.9988   13.5590  -27.5786 H   0  0  0  0  0  0
  -19.0667   15.8740  -29.1879 H   0  0  0  0  0  0
  -19.1973   13.7916  -28.5498 H   0  0  0  0  0  0
  -18.9390   15.4262  -24.1275 H   0  0  0  0  0  0
  -19.0894   13.6895  -24.0706 H   0  0  0  0  0  0
  -20.3510   17.4916  -25.3088 H   0  0  0  0  0  0
  -21.4735   16.3958  -23.9162 H   0  0  0  0  0  0
  -20.6201   16.5972  -26.7857 H   0  0  0  0  0  0
  -18.7013   13.8772  -26.3698 H   0  0  0  0  0  0
  1  2  1  0  0  0
  1  3  2  0  0  0
  1 32  1  0  0  0
  2  4  2  0  0  0
  2 33  1  0  0  0
  3  5  1  0  0  0
  3 34  1  0  0  0
  4  6  1  0  0  0
  4 35  1  0  0  0
  5  6  2  0  0  0
  5 18  1  0  0  0
  6 19  1  0  0  0
  7  8  2  0  0  0
  7 14  1  0  0  0
  7 36  1  0  0  0
  8 15  1  0  0  0
  8 37  1  0  0  0
  9 11  2  0  0  0
  9 13  1  0  0  0
  9 38  1  0  0  0
 10 12  2  0  0  0
 10 13  1  0  0  0
 10 39  1  0  0  0
 11 22  1  0  0  0
 11 40  1  0  0  0
 12 16  1  0  0  0
 12 22  1  0  0  0
 13 27  2  0  0  0
 14 23  1  0  0  0
 14 28  2  0  0  0
 15 24  1  0  0  0
 15 29  2  0  0  0
 16 25  1  0  0  0
 16 30  2  0  0  0
 17 21  1  0  0  0
 17 26  1  0  0  0
 17 31  2  0  0  0
 18 20  1  0  0  0
 18 41  1  0  0  0
 18 42  1  0  0  0
 19 20  1  0  0  0
 19 25  1  0  0  0
 19 43  1  0  0  0
 20 26  1  0  0  0
 20 44  1  0  0  0
 21 24  1  0  0  0
 21 45  1  0  0  0
 21 46  1  0  0  0
 22 47  1  0  0  0
 23 24  1  0  0  0
 23 48  1  0  0  0
 25 49  1  0  0  0
 26 50  1  0  0  0
M  END
> <s_i_glide_gridfile>
Cov2_glide-grid_1

> <i_i_glide_lignum>
2

> <i_i_glide_rotatable_bonds>
7

> <r_i_docking_score>
-8.41268

> <r_i_glide_ligand_efficiency>
-0.271377

> <r_i_glide_ligand_efficiency_sa>
-0.852497

> <r_i_glide_ligand_efficiency_ln>
-1.89732

> <r_i_glide_gscore>
-8.41268

> <r_i_glide_lipo>
-3.35088

> <r_i_glide_hbond>
-0.597185

> <r_i_glide_metal>
-0

> <r_i_glide_rewards>
-1.37259

> <r_i_glide_evdw>
-51.3184

> <r_i_glide_ecoul>
-7.96747

> <r_i_glide_erotb>
0.669022

> <r_i_glide_esite>
0

> <r_i_glide_emodel>
-87.0936

> <r_i_glide_energy>
-59.2859

> <r_i_glide_einternal>
3.42163

> <i_i_glide_confnum>
32

> <i_i_glide_posenum>
190

> <r_i_glide_eff_state_penalty>
0

$$$$
78
                    3D
 Structure written by MMmdl.
 58 61  0  0  1  0            999 V2000
  -22.0317   12.6540  -29.9978 C   0  0  0  0  0  0
  -23.1040   13.4443  -30.3985 C   0  0  0  0  0  0
  -20.8735   13.2410  -29.4943 C   0  0  0  0  0  0
  -23.0407   14.8314  -30.2991 C   0  0  0  0  0  0
  -19.6119   15.2784  -28.8818 C   0  0  0  0  0  0
  -19.5494   16.6648  -28.7806 C   0  0  0  0  0  0
  -21.7857   16.8715  -29.6588 C   0  0  0  0  0  0
  -20.7760   14.6503  -29.3812 C   0  0  0  0  0  0
  -21.8793   15.4616  -29.7858 C   0  0  0  0  0  0
  -20.6290   17.4714  -29.1451 C   0  0  0  0  0  0
  -19.7667   15.0104  -22.8941 C   0  0  0  0  0  0
  -22.4055   24.1404  -33.9234 C   0  0  0  0  0  0
  -20.7594   13.8233  -21.2243 C   0  0  0  0  0  0
  -24.4068   24.2303  -35.0066 C   0  0  0  0  0  0
  -20.8373   15.8304  -23.0990 C   0  0  0  0  0  0
  -22.7632   23.1216  -33.0968 C   0  0  0  0  0  0
  -22.0106   15.6090  -22.2586 C   0  0  0  0  0  0
  -24.1291   22.6014  -33.2497 C   0  0  0  0  0  0
  -20.8838   16.9066  -24.0918 C   0  0  0  0  0  0
  -21.8365   22.6182  -32.0748 C   0  0  0  0  0  0
  -19.7904   17.4272  -24.6902 C   0  0  0  0  0  0
  -21.9002   21.4156  -31.4618 C   0  0  0  0  0  0
  -19.7858   18.4631  -25.6965 C   0  0  0  0  0  0
  -20.9929   21.0066  -30.4155 C   0  0  0  0  0  0
  -21.0717   19.4787  -27.5827 C   0  0  0  0  0  0
  -20.5271   18.9972  -28.9638 C   0  0  2  0  0  0
  -19.7316   13.9953  -21.9774 N   0  0  0  0  0  0
  -23.2107   24.6836  -34.8853 N   0  0  0  0  0  0
  -21.8661   14.6094  -21.3583 N   0  0  0  0  0  0
  -24.8506   23.2204  -34.2094 N   0  0  0  0  0  0
  -20.8878   18.5499  -26.4614 N   0  0  0  0  0  0
  -21.1712   19.7210  -30.0673 N   0  0  0  0  0  0
  -23.0724   16.2242  -22.3278 O   0  0  0  0  0  0
  -24.6670   21.7059  -32.6088 O   0  0  0  0  0  0
  -18.8076   19.1895  -25.8527 O   0  0  0  0  0  0
  -20.1918   21.7655  -29.8644 O   0  0  0  0  0  0
  -22.0940   11.5794  -30.0868 H   0  0  0  0  0  0
  -23.9922   12.9799  -30.8013 H   0  0  0  0  0  0
  -20.0411   12.6220  -29.1927 H   0  0  0  0  0  0
  -23.8791   15.4361  -30.6132 H   0  0  0  0  0  0
  -18.7674   14.6745  -28.5819 H   0  0  0  0  0  0
  -18.6463   17.1171  -28.3953 H   0  0  0  0  0  0
  -22.6349   17.4733  -29.9481 H   0  0  0  0  0  0
  -18.8703   15.1182  -23.4892 H   0  0  0  0  0  0
  -21.4166   24.5701  -33.8500 H   0  0  0  0  0  0
  -20.7831   13.0446  -20.4652 H   0  0  0  0  0  0
  -25.0933   24.6286  -35.7488 H   0  0  0  0  0  0
  -21.8570   17.3002  -24.3616 H   0  0  0  0  0  0
  -21.0301   23.2826  -31.7877 H   0  0  0  0  0  0
  -18.8102   17.0921  -24.4023 H   0  0  0  0  0  0
  -22.6586   20.6957  -31.7336 H   0  0  0  0  0  0
  -20.6628   20.4623  -27.3400 H   0  0  0  0  0  0
  -22.1497   19.6277  -27.6647 H   0  0  0  0  0  0
  -19.4612   19.2371  -29.0117 H   0  0  0  0  0  0
  -22.6678   14.4615  -20.7701 H   0  0  0  0  0  0
  -25.7880   22.8711  -34.3061 H   0  0  0  0  0  0
  -21.6386   17.8989  -26.2902 H   0  0  0  0  0  0
  -21.7857   19.1686  -30.6467 H   0  0  0  0  0  0
  1  2  1  0  0  0
  1  3  2  0  0  0
  1 37  1  0  0  0
  2  4  2  0  0  0
  2 38  1  0  0  0
  3  8  1  0  0  0
  3 39  1  0  0  0
  4  9  1  0  0  0
  4 40  1  0  0  0
  5  6  2  0  0  0
  5  8  1  0  0  0
  5 41  1  0  0  0
  6 10  1  0  0  0
  6 42  1  0  0  0
  7  9  1  0  0  0
  7 10  2  0  0  0
  7 43  1  0  0  0
  8  9  2  0  0  0
 10 26  1  0  0  0
 11 15  2  0  0  0
 11 27  1  0  0  0
 11 44  1  0  0  0
 12 16  2  0  0  0
 12 28  1  0  0  0
 12 45  1  0  0  0
 13 27  2  0  0  0
 13 29  1  0  0  0
 13 46  1  0  0  0
 14 28  2  0  0  0
 14 30  1  0  0  0
 14 47  1  0  0  0
 15 17  1  0  0  0
 15 19  1  0  0  0
 16 18  1  0  0  0
 16 20  1  0  0  0
 17 29  1  0  0  0
 17 33  2  0  0  0
 18 30  1  0  0  0
 18 34  2  0  0  0
 19 21  2  0  0  0
 19 48  1  0  0  0
 20 22  2  0  0  0
 20 49  1  0  0  0
 21 23  1  0  0  0
 21 50  1  0  0  0
 22 24  1  0  0  0
 22 51  1  0  0  0
 23 31  1  0  0  0
 23 35  2  0  0  0
 24 32  1  0  0  0
 24 36  2  0  0  0
 25 26  1  0  0  0
 25 31  1  0  0  0
 25 52  1  0  0  0
 25 53  1  0  0  0
 26 32  1  0  0  0
 26 54  1  0  0  0
 29 55  1  0  0  0
 30 56  1  0  0  0
 31 57  1  0  0  0
 32 58  1  0  0  0
M  END
> <s_i_glide_gridfile>
Cov2_glide-grid_1

> <i_i_glide_lignum>
90

> <i_i_glide_rotatable_bonds>
10

> <r_i_docking_score>
-8.4079

> <r_i_glide_ligand_efficiency>
-0.233553

> <r_i_glide_ligand_efficiency_sa>
-0.771175

> <r_i_glide_ligand_efficiency_ln>
-1.83438

> <r_i_glide_gscore>
-8.4079

> <r_i_glide_lipo>
-3.112

> <r_i_glide_hbond>
-0.719923

> <r_i_glide_metal>
-0

> <r_i_glide_rewards>
-0.805659

> <r_i_glide_evdw>
-52.1802

> <r_i_glide_ecoul>
-11.8102

> <r_i_glide_erotb>
0.61022

> <r_i_glide_esite>
0

> <r_i_glide_emodel>
-92.0869

> <r_i_glide_energy>
-63.9904

> <r_i_glide_einternal>
12.0284

> <i_i_glide_confnum>
94

> <i_i_glide_posenum>
73

> <r_i_glide_eff_state_penalty>
0

$$$$
36
                    3D
 Structure written by MMmdl.
 61 64  0  0  1  0            999 V2000
  -22.1012   12.7153  -29.8828 C   0  0  0  0  0  0
  -23.1118   13.5294  -30.3875 C   0  0  0  0  0  0
  -20.9464   13.2751  -29.3461 C   0  0  0  0  0  0
  -22.9817   14.9166  -30.3632 C   0  0  0  0  0  0
  -19.6103   15.2810  -28.7984 C   0  0  0  0  0  0
  -19.4757   16.6664  -28.7886 C   0  0  0  0  0  0
  -20.4175   13.9371  -21.4145 C   0  0  0  0  0  0
  -21.6486   16.9286  -29.7924 C   0  0  0  0  0  0
  -21.7028   14.2509  -20.9836 C   0  0  0  0  0  0
  -21.8274   16.0513  -22.4413 C   0  0  0  0  0  0
  -20.7791   14.6810  -29.3162 C   0  0  0  0  0  0
  -21.8160   15.5202  -29.8300 C   0  0  0  0  0  0
  -20.5404   15.8156  -22.9498 C   0  0  0  0  0  0
  -20.4853   17.5034  -29.2671 C   0  0  0  0  0  0
  -19.8223   14.7300  -22.4040 C   0  0  0  0  0  0
  -22.7483   25.4864  -32.2980 C   0  0  0  0  0  0
  -23.1549   24.8233  -31.1958 C   0  0  0  0  0  0
  -22.0111   24.8585  -33.3672 C   0  0  0  0  0  0
  -22.8755   23.4214  -30.9590 C   0  0  0  0  0  0
  -19.9663   16.6841  -24.0104 C   0  0  0  0  0  0
  -20.6514   17.5026  -24.8382 C   0  0  0  0  0  0
  -20.0156   18.3498  -25.8251 C   0  0  0  0  0  0
  -20.8551   20.9916  -30.7353 C   0  0  0  0  0  0
  -18.4137   14.3867  -22.8645 C   0  0  0  0  0  0
  -21.7788   21.3885  -31.9102 C   0  0  0  0  0  0
  -20.5684   19.7073  -27.8629 C   0  0  0  0  0  0
  -20.2640   19.0307  -29.2459 C   0  0  2  0  0  0
  -22.4094   15.2973  -21.4757 N   0  0  0  0  0  0
  -21.6995   23.5575  -33.1119 N   0  0  0  0  0  0
  -22.0887   22.8362  -31.9299 N   0  0  0  0  0  0
  -20.8840   18.8205  -26.7351 N   0  0  0  0  0  0
  -20.9378   19.6991  -30.3711 N   0  0  0  0  0  0
  -21.6904   25.4240  -34.4078 O   0  0  0  0  0  0
  -23.3087   22.8433  -29.9643 O   0  0  0  0  0  0
  -18.8108   18.6209  -25.8330 O   0  0  0  0  0  0
  -20.1297   21.8166  -30.1745 O   0  0  0  0  0  0
  -22.2127   11.6389  -29.9119 H   0  0  0  0  0  0
  -24.0025   13.0781  -30.8010 H   0  0  0  0  0  0
  -20.1656   12.6351  -28.9612 H   0  0  0  0  0  0
  -23.7720   15.5409  -30.7556 H   0  0  0  0  0  0
  -18.8172   14.6560  -28.4145 H   0  0  0  0  0  0
  -18.5649   17.0940  -28.3921 H   0  0  0  0  0  0
  -19.8960   13.0968  -20.9788 H   0  0  0  0  0  0
  -22.4468   17.5469  -30.1747 H   0  0  0  0  0  0
  -22.1852   13.6605  -20.2182 H   0  0  0  0  0  0
  -22.4223   16.8809  -22.7937 H   0  0  0  0  0  0
  -22.9814   26.5360  -32.4066 H   0  0  0  0  0  0
  -23.7077   25.3508  -30.4328 H   0  0  0  0  0  0
  -18.8891   16.6521  -24.0935 H   0  0  0  0  0  0
  -21.7283   17.5453  -24.7997 H   0  0  0  0  0  0
  -17.7254   15.2011  -22.6363 H   0  0  0  0  0  0
  -18.0284   13.4725  -22.4104 H   0  0  0  0  0  0
  -18.4110   14.2511  -23.9452 H   0  0  0  0  0  0
  -21.2888   21.0834  -32.8366 H   0  0  0  0  0  0
  -22.7128   20.8256  -31.8587 H   0  0  0  0  0  0
  -21.4369   20.3593  -27.9616 H   0  0  0  0  0  0
  -19.7513   20.3856  -27.5992 H   0  0  0  0  0  0
  -19.1985   19.1642  -29.4429 H   0  0  0  0  0  0
  -21.2099   22.9836  -33.7840 H   0  0  0  0  0  0
  -21.8493   18.5391  -26.6465 H   0  0  0  0  0  0
  -21.4691   19.0834  -30.9683 H   0  0  0  0  0  0
  1  2  1  0  0  0
  1  3  2  0  0  0
  1 37  1  0  0  0
  2  4  2  0  0  0
  2 38  1  0  0  0
  3 11  1  0  0  0
  3 39  1  0  0  0
  4 12  1  0  0  0
  4 40  1  0  0  0
  5  6  2  0  0  0
  5 11  1  0  0  0
  5 41  1  0  0  0
  6 14  1  0  0  0
  6 42  1  0  0  0
  7  9  2  0  0  0
  7 15  1  0  0  0
  7 43  1  0  0  0
  8 12  1  0  0  0
  8 14  2  0  0  0
  8 44  1  0  0  0
  9 28  1  0  0  0
  9 45  1  0  0  0
 10 13  1  0  0  0
 10 28  2  0  0  0
 10 46  1  0  0  0
 11 12  2  0  0  0
 13 15  2  0  0  0
 13 20  1  0  0  0
 14 27  1  0  0  0
 15 24  1  0  0  0
 16 17  2  0  0  0
 16 18  1  0  0  0
 16 47  1  0  0  0
 17 19  1  0  0  0
 17 48  1  0  0  0
 18 29  1  0  0  0
 18 33  2  0  0  0
 19 30  1  0  0  0
 19 34  2  0  0  0
 20 21  2  0  0  0
 20 49  1  0  0  0
 21 22  1  0  0  0
 21 50  1  0  0  0
 22 31  1  0  0  0
 22 35  2  0  0  0
 23 25  1  0  0  0
 23 32  1  0  0  0
 23 36  2  0  0  0
 24 51  1  0  0  0
 24 52  1  0  0  0
 24 53  1  0  0  0
 25 30  1  0  0  0
 25 54  1  0  0  0
 25 55  1  0  0  0
 26 27  1  0  0  0
 26 31  1  0  0  0
 26 56  1  0  0  0
 26 57  1  0  0  0
 27 32  1  0  0  0
 27 58  1  0  0  0
 29 30  1  0  0  0
 29 59  1  0  0  0
 31 60  1  0  0  0
 32 61  1  0  0  0
M  END
> <s_i_glide_gridfile>
Cov2_glide-grid_1

> <i_i_glide_lignum>
47

> <i_i_glide_rotatable_bonds>
10

> <r_i_docking_score>
-8.38908

> <r_i_glide_ligand_efficiency>
-0.23303

> <r_i_glide_ligand_efficiency_sa>
-0.769448

> <r_i_glide_ligand_efficiency_ln>
-1.83027

> <r_i_glide_gscore>
-8.38908

> <r_i_glide_lipo>
-3.86779

> <r_i_glide_hbond>
-0.762101

> <r_i_glide_metal>
-0

> <r_i_glide_rewards>
-0.42903

> <r_i_glide_evdw>
-52.753

> <r_i_glide_ecoul>
-9.24802

> <r_i_glide_erotb>
0.694686

> <r_i_glide_esite>
0

> <r_i_glide_emodel>
-87.2619

> <r_i_glide_energy>
-62.001

> <r_i_glide_einternal>
11.1806

> <i_i_glide_confnum>
49

> <i_i_glide_posenum>
216

> <r_i_glide_eff_state_penalty>
0

$$$$
27
                    3D
 Structure written by MMmdl.
 54 57  0  0  1  0            999 V2000
  -25.7110   18.3517  -31.7336 C   0  0  0  0  0  0
  -24.7708   17.5759  -32.4019 C   0  0  0  0  0  0
  -25.3480   19.0879  -30.6096 C   0  0  0  0  0  0
  -23.4480   17.5331  -31.9719 C   0  0  0  0  0  0
  -23.6202   19.7474  -28.9607 C   0  0  0  0  0  0
  -22.3085   19.6665  -28.4993 C   0  0  0  0  0  0
  -21.7179   18.2310  -30.3481 C   0  0  0  0  0  0
  -24.0160   19.0471  -30.1263 C   0  0  0  0  0  0
  -23.0486   18.2659  -30.8266 C   0  0  0  0  0  0
  -21.3504   18.9156  -29.1848 C   0  0  0  0  0  0
  -20.7778   13.9276  -21.4083 C   0  0  0  0  0  0
  -21.9179   14.6125  -21.6378 C   0  0  0  0  0  0
  -17.2160   21.8190  -27.1297 C   0  0  0  0  0  0
  -18.4896   23.2069  -25.1680 C   0  0  0  0  0  0
  -18.5703   21.9201  -27.0779 C   0  0  0  0  0  0
  -19.5114   14.2893  -22.0029 C   0  0  0  0  0  0
  -22.0047   15.7316  -22.5563 C   0  0  0  0  0  0
  -16.4104   22.4264  -26.0989 C   0  0  0  0  0  0
  -19.3900   21.2298  -28.0587 C   0  0  0  0  0  0
  -20.4106   16.6235  -25.6184 C   0  0  0  0  0  0
  -20.7162   17.1048  -24.1862 C   0  0  0  0  0  0
  -19.7397   17.4663  -27.8826 C   0  0  0  0  0  0
  -19.9015   18.7803  -28.6923 C   0  0  2  0  0  0
  -19.1981   22.6040  -26.0650 N   0  0  0  0  0  0
  -17.1266   23.1352  -25.2017 N   0  0  0  0  0  0
  -19.6185   15.2719  -22.9318 N   0  0  0  0  0  0
  -20.8340   15.9805  -23.2357 N   0  0  0  0  0  0
  -19.3007   19.8907  -27.9305 N   0  0  0  0  0  0
  -20.1943   17.6114  -26.4951 N   0  0  0  0  0  0
  -18.4332   13.8206  -21.6524 O   0  0  0  0  0  0
  -23.0476   16.3744  -22.6916 O   0  0  0  0  0  0
  -15.2108   22.2218  -26.0011 O   0  0  0  0  0  0
  -20.1064   21.8179  -28.8732 O   0  0  0  0  0  0
  -20.3219   15.4317  -25.9136 O   0  0  0  0  0  0
  -26.7321   18.3731  -32.0843 H   0  0  0  0  0  0
  -25.0709   17.0002  -33.2617 H   0  0  0  0  0  0
  -26.0875   19.6767  -30.0862 H   0  0  0  0  0  0
  -22.7234   16.9301  -32.5011 H   0  0  0  0  0  0
  -24.3495   20.3322  -28.4185 H   0  0  0  0  0  0
  -22.0416   20.1899  -27.5934 H   0  0  0  0  0  0
  -20.9926   17.6346  -30.8838 H   0  0  0  0  0  0
  -20.7851   13.0890  -20.7252 H   0  0  0  0  0  0
  -22.8263   14.3047  -21.1426 H   0  0  0  0  0  0
  -16.7098   21.2719  -27.9106 H   0  0  0  0  0  0
  -18.9475   23.7686  -24.3574 H   0  0  0  0  0  0
  -21.6176   17.7203  -24.2259 H   0  0  0  0  0  0
  -19.9167   17.7672  -23.8502 H   0  0  0  0  0  0
  -18.6864   17.1829  -27.8693 H   0  0  0  0  0  0
  -20.2617   16.6417  -28.3745 H   0  0  0  0  0  0
  -19.2840   18.6973  -29.5894 H   0  0  0  0  0  0
  -16.5854   23.5317  -24.4440 H   0  0  0  0  0  0
  -18.8091   15.7115  -23.3458 H   0  0  0  0  0  0
  -18.6261   19.5846  -27.2457 H   0  0  0  0  0  0
  -20.3516   18.5592  -26.1850 H   0  0  0  0  0  0
  1  2  1  0  0  0
  1  3  2  0  0  0
  1 35  1  0  0  0
  2  4  2  0  0  0
  2 36  1  0  0  0
  3  8  1  0  0  0
  3 37  1  0  0  0
  4  9  1  0  0  0
  4 38  1  0  0  0
  5  6  2  0  0  0
  5  8  1  0  0  0
  5 39  1  0  0  0
  6 10  1  0  0  0
  6 40  1  0  0  0
  7  9  1  0  0  0
  7 10  2  0  0  0
  7 41  1  0  0  0
  8  9  2  0  0  0
 10 23  1  0  0  0
 11 12  2  0  0  0
 11 16  1  0  0  0
 11 42  1  0  0  0
 12 17  1  0  0  0
 12 43  1  0  0  0
 13 15  2  0  0  0
 13 18  1  0  0  0
 13 44  1  0  0  0
 14 24  2  0  0  0
 14 25  1  0  0  0
 14 45  1  0  0  0
 15 19  1  0  0  0
 15 24  1  0  0  0
 16 26  1  0  0  0
 16 30  2  0  0  0
 17 27  1  0  0  0
 17 31  2  0  0  0
 18 25  1  0  0  0
 18 32  2  0  0  0
 19 28  1  0  0  0
 19 33  2  0  0  0
 20 21  1  0  0  0
 20 29  1  0  0  0
 20 34  2  0  0  0
 21 27  1  0  0  0
 21 46  1  0  0  0
 21 47  1  0  0  0
 22 23  1  0  0  0
 22 29  1  0  0  0
 22 48  1  0  0  0
 22 49  1  0  0  0
 23 28  1  0  0  0
 23 50  1  0  0  0
 25 51  1  0  0  0
 26 27  1  0  0  0
 26 52  1  0  0  0
 28 53  1  0  0  0
 29 54  1  0  0  0
M  END
> <s_i_glide_gridfile>
Cov2_glide-grid_1

> <i_i_glide_lignum>
26

> <i_i_glide_rotatable_bonds>
9

> <r_i_docking_score>
-8.33014

> <r_i_glide_ligand_efficiency>
-0.245004

> <r_i_glide_ligand_efficiency_sa>
-0.793718

> <r_i_glide_ligand_efficiency_ln>
-1.84036

> <r_i_glide_gscore>
-8.33014

> <r_i_glide_lipo>
-2.5884

> <r_i_glide_hbond>
-0.748929

> <r_i_glide_metal>
-0

> <r_i_glide_rewards>
-0.543505

> <r_i_glide_evdw>
-49.2573

> <r_i_glide_ecoul>
-16.4611

> <r_i_glide_erotb>
0.569655

> <r_i_glide_esite>
-0.0869353

> <r_i_glide_emodel>
-94.3735

> <r_i_glide_energy>
-65.7183

> <r_i_glide_einternal>
4.91406

> <i_i_glide_confnum>
24

> <i_i_glide_posenum>
42

> <r_i_glide_eff_state_penalty>
0

$$$$
95
                    3D
 Structure written by MMmdl.
 54 57  0  0  1  0            999 V2000
  -26.6753   18.9659  -32.5781 C   0  0  0  0  0  0
  -26.1440   20.0006  -31.8143 C   0  0  0  0  0  0
  -26.0620   17.7167  -32.5963 C   0  0  0  0  0  0
  -24.9938   19.8022  -31.0544 C   0  0  0  0  0  0
  -24.2472   16.2260  -31.8309 C   0  0  0  0  0  0
  -23.0972   16.0235  -31.0737 C   0  0  0  0  0  0
  -23.1925   18.2940  -30.2698 C   0  0  0  0  0  0
  -24.8904   17.4836  -31.8375 C   0  0  0  0  0  0
  -24.3491   18.5417  -31.0489 C   0  0  0  0  0  0
  -22.5684   17.0381  -30.2707 C   0  0  0  0  0  0
  -22.0247   15.3722  -21.1294 C   0  0  0  0  0  0
  -21.1050   14.4213  -21.3935 C   0  0  0  0  0  0
  -19.0678   19.2880  -26.9543 C   0  0  0  0  0  0
  -18.1586   21.2474  -26.2433 C   0  0  0  0  0  0
  -19.5070   19.7870  -28.1459 C   0  0  0  0  0  0
  -22.4118   16.3800  -22.0898 C   0  0  0  0  0  0
  -20.3874   14.3414  -22.6489 C   0  0  0  0  0  0
  -19.2321   21.2016  -28.4055 C   0  0  0  0  0  0
  -20.1183   18.9182  -29.1350 C   0  0  0  0  0  0
  -21.1685   15.2457  -25.9806 C   0  0  0  0  0  0
  -20.0892   15.4181  -24.8872 C   0  0  0  0  0  0
  -21.6941   15.5608  -28.3922 C   0  0  0  0  0  0
  -21.3499   16.7233  -29.3759 C   0  0  2  0  0  0
  -18.4111   20.0109  -26.0017 N   0  0  0  0  0  0
  -18.5448   21.8208  -27.4172 N   0  0  0  0  0  0
  -21.6183   16.3991  -23.1909 N   0  0  0  0  0  0
  -20.6732   15.3631  -23.5249 N   0  0  0  0  0  0
  -20.7945   17.8676  -28.6337 N   0  0  0  0  0  0
  -20.7672   15.4190  -27.2531 N   0  0  0  0  0  0
  -23.3971   17.1031  -21.9754 O   0  0  0  0  0  0
  -19.6105   13.4210  -22.8766 O   0  0  0  0  0  0
  -19.5690   21.8664  -29.3815 O   0  0  0  0  0  0
  -20.0106   19.1102  -30.3445 O   0  0  0  0  0  0
  -22.3438   15.0246  -25.6865 O   0  0  0  0  0  0
  -27.5656   19.1366  -33.1633 H   0  0  0  0  0  0
  -26.6284   20.9654  -31.8094 H   0  0  0  0  0  0
  -26.4698   16.9197  -33.1995 H   0  0  0  0  0  0
  -24.5889   20.6112  -30.4637 H   0  0  0  0  0  0
  -24.6742   15.4213  -32.4029 H   0  0  0  0  0  0
  -22.6309   15.0503  -31.0948 H   0  0  0  0  0  0
  -22.8178   19.0987  -29.6558 H   0  0  0  0  0  0
  -22.5214   15.3865  -20.1688 H   0  0  0  0  0  0
  -20.8702   13.6823  -20.6397 H   0  0  0  0  0  0
  -19.1927   18.2419  -26.7058 H   0  0  0  0  0  0
  -17.6350   21.8692  -25.5211 H   0  0  0  0  0  0
  -19.6085   16.3886  -25.0138 H   0  0  0  0  0  0
  -19.3128   14.6667  -25.0459 H   0  0  0  0  0  0
  -21.7103   14.6102  -28.9282 H   0  0  0  0  0  0
  -22.7207   15.7070  -28.0389 H   0  0  0  0  0  0
  -20.5495   16.3691  -30.0326 H   0  0  0  0  0  0
  -18.3417   22.7903  -27.5874 H   0  0  0  0  0  0
  -21.8625   16.9518  -23.9980 H   0  0  0  0  0  0
  -20.8677   17.7872  -27.6333 H   0  0  0  0  0  0
  -19.7796   15.4595  -27.4576 H   0  0  0  0  0  0
  1  2  1  0  0  0
  1  3  2  0  0  0
  1 35  1  0  0  0
  2  4  2  0  0  0
  2 36  1  0  0  0
  3  8  1  0  0  0
  3 37  1  0  0  0
  4  9  1  0  0  0
  4 38  1  0  0  0
  5  6  2  0  0  0
  5  8  1  0  0  0
  5 39  1  0  0  0
  6 10  1  0  0  0
  6 40  1  0  0  0
  7  9  1  0  0  0
  7 10  2  0  0  0
  7 41  1  0  0  0
  8  9  2  0  0  0
 10 23  1  0  0  0
 11 12  2  0  0  0
 11 16  1  0  0  0
 11 42  1  0  0  0
 12 17  1  0  0  0
 12 43  1  0  0  0
 13 15  2  0  0  0
 13 24  1  0  0  0
 13 44  1  0  0  0
 14 24  2  0  0  0
 14 25  1  0  0  0
 14 45  1  0  0  0
 15 18  1  0  0  0
 15 19  1  0  0  0
 16 26  1  0  0  0
 16 30  2  0  0  0
 17 27  1  0  0  0
 17 31  2  0  0  0
 18 25  1  0  0  0
 18 32  2  0  0  0
 19 28  1  0  0  0
 19 33  2  0  0  0
 20 21  1  0  0  0
 20 29  1  0  0  0
 20 34  2  0  0  0
 21 27  1  0  0  0
 21 46  1  0  0  0
 21 47  1  0  0  0
 22 23  1  0  0  0
 22 29  1  0  0  0
 22 48  1  0  0  0
 22 49  1  0  0  0
 23 28  1  0  0  0
 23 50  1  0  0  0
 25 51  1  0  0  0
 26 27  1  0  0  0
 26 52  1  0  0  0
 28 53  1  0  0  0
 29 54  1  0  0  0
M  END
> <s_i_glide_gridfile>
Cov2_glide-grid_1

> <i_i_glide_lignum>
88

> <i_i_glide_rotatable_bonds>
9

> <r_i_docking_score>
-8.2839

> <r_i_glide_ligand_efficiency>
-0.243644

> <r_i_glide_ligand_efficiency_sa>
-0.789312

> <r_i_glide_ligand_efficiency_ln>
-1.83015

> <r_i_glide_gscore>
-8.2839

> <r_i_glide_lipo>
-2.849

> <r_i_glide_hbond>
-0.929304

> <r_i_glide_metal>
-0

> <r_i_glide_rewards>
-1.14089

> <r_i_glide_evdw>
-50.5984

> <r_i_glide_ecoul>
-9.36289

> <r_i_glide_erotb>
0.569655

> <r_i_glide_esite>
0

> <r_i_glide_emodel>
-88.9438

> <r_i_glide_energy>
-59.9613

> <r_i_glide_einternal>
9.02291

> <i_i_glide_confnum>
42

> <i_i_glide_posenum>
12

> <r_i_glide_eff_state_penalty>
0

$$$$
49
                    3D
 Structure written by MMmdl.
 53 56  0  0  1  0            999 V2000
  -22.6772   13.4555  -28.0288 C   0  0  0  0  0  0
  -22.8103   13.7882  -29.3758 C   0  0  0  0  0  0
  -21.8360   14.1869  -27.1947 C   0  0  0  0  0  0
  -22.0810   14.8526  -29.9010 C   0  0  0  0  0  0
  -21.1134   15.2547  -27.7153 C   0  0  0  0  0  0
  -21.2135   15.5682  -29.0714 C   0  0  0  0  0  0
  -24.8773   19.7397  -31.4705 C   0  0  0  0  0  0
  -26.1622   19.4832  -31.8181 C   0  0  0  0  0  0
  -17.6107   23.4204  -24.8888 C   0  0  0  0  0  0
  -18.8214   23.2539  -24.3155 C   0  0  0  0  0  0
  -24.2375   17.6782  -32.4583 C   0  0  0  0  0  0
  -23.8162   18.8020  -31.8319 C   0  0  0  0  0  0
  -26.5355   18.3306  -32.6296 C   0  0  0  0  0  0
  -17.1510   22.6229  -26.0020 C   0  0  0  0  0  0
  -19.8116   22.3160  -24.8011 C   0  0  0  0  0  0
  -21.8818   18.4270  -30.2946 C   0  0  0  0  0  0
  -19.7271   19.2793  -26.6930 C   0  0  0  0  0  0
  -20.0594   16.0931  -27.0411 C   0  0  0  0  0  0
  -20.2528   16.6805  -29.4225 C   0  0  2  0  0  0
  -19.7028   17.1951  -28.0598 C   0  0  1  0  0  0
  -22.3456   19.1028  -31.5868 C   0  0  0  0  0  0
  -20.3218   20.6951  -26.6290 C   0  0  0  0  0  0
  -25.5404   17.4201  -32.8016 N   0  0  0  0  0  0
  -18.1200   21.8293  -26.5188 N   0  0  0  0  0  0
  -19.4149   21.6252  -25.9217 N   0  0  0  0  0  0
  -20.7956   17.6445  -30.4017 N   0  0  0  0  0  0
  -20.2419   18.4872  -27.6400 N   0  0  0  0  0  0
  -27.6128   18.2211  -33.2009 O   0  0  0  0  0  0
  -16.0014   22.6109  -26.4328 O   0  0  0  0  0  0
  -20.9205   22.2105  -24.2740 O   0  0  0  0  0  0
  -22.5041   18.5923  -29.2462 O   0  0  0  0  0  0
  -18.7989   18.9297  -25.9650 O   0  0  0  0  0  0
  -23.2107   12.6214  -27.6239 H   0  0  0  0  0  0
  -23.4659   13.2181  -30.0169 H   0  0  0  0  0  0
  -21.7333   13.9041  -26.1573 H   0  0  0  0  0  0
  -22.1729   15.0971  -30.9488 H   0  0  0  0  0  0
  -24.6442   20.6124  -30.8779 H   0  0  0  0  0  0
  -26.9505   20.1582  -31.5231 H   0  0  0  0  0  0
  -16.9245   24.1459  -24.4740 H   0  0  0  0  0  0
  -19.0853   23.8549  -23.4550 H   0  0  0  0  0  0
  -23.5682   16.9186  -32.8401 H   0  0  0  0  0  0
  -19.2104   15.4393  -26.8771 H   0  0  0  0  0  0
  -20.3475   16.4766  -26.0616 H   0  0  0  0  0  0
  -19.4101   16.1861  -29.9113 H   0  0  0  0  0  0
  -18.6151   17.2801  -28.1398 H   0  0  0  0  0  0
  -21.7625   18.7489  -32.4388 H   0  0  0  0  0  0
  -22.1744   20.1774  -31.5248 H   0  0  0  0  0  0
  -20.4904   21.0687  -27.6396 H   0  0  0  0  0  0
  -21.3030   20.6192  -26.1577 H   0  0  0  0  0  0
  -25.7829   16.6528  -33.4159 H   0  0  0  0  0  0
  -17.9211   21.1342  -27.2221 H   0  0  0  0  0  0
  -20.4060   17.5462  -31.3312 H   0  0  0  0  0  0
  -21.0926   18.7673  -28.1195 H   0  0  0  0  0  0
  1  2  1  0  0  0
  1  3  2  0  0  0
  1 33  1  0  0  0
  2  4  2  0  0  0
  2 34  1  0  0  0
  3  5  1  0  0  0
  3 35  1  0  0  0
  4  6  1  0  0  0
  4 36  1  0  0  0
  5  6  2  0  0  0
  5 18  1  0  0  0
  6 19  1  0  0  0
  7  8  2  0  0  0
  7 12  1  0  0  0
  7 37  1  0  0  0
  8 13  1  0  0  0
  8 38  1  0  0  0
  9 10  2  0  0  0
  9 14  1  0  0  0
  9 39  1  0  0  0
 10 15  1  0  0  0
 10 40  1  0  0  0
 11 12  2  0  0  0
 11 23  1  0  0  0
 11 41  1  0  0  0
 12 21  1  0  0  0
 13 23  1  0  0  0
 13 28  2  0  0  0
 14 24  1  0  0  0
 14 29  2  0  0  0
 15 25  1  0  0  0
 15 30  2  0  0  0
 16 21  1  0  0  0
 16 26  1  0  0  0
 16 31  2  0  0  0
 17 22  1  0  0  0
 17 27  1  0  0  0
 17 32  2  0  0  0
 18 20  1  0  0  0
 18 42  1  0  0  0
 18 43  1  0  0  0
 19 20  1  0  0  0
 19 26  1  0  0  0
 19 44  1  0  0  0
 20 27  1  0  0  0
 20 45  1  0  0  0
 21 46  1  0  0  0
 21 47  1  0  0  0
 22 25  1  0  0  0
 22 48  1  0  0  0
 22 49  1  0  0  0
 23 50  1  0  0  0
 24 25  1  0  0  0
 24 51  1  0  0  0
 26 52  1  0  0  0
 27 53  1  0  0  0
M  END
> <s_i_glide_gridfile>
Cov2_glide-grid_1

> <i_i_glide_lignum>
1

> <i_i_glide_rotatable_bonds>
8

> <r_i_docking_score>
-8.27531

> <r_i_glide_ligand_efficiency>
-0.258603

> <r_i_glide_ligand_efficiency_sa>
-0.821014

> <r_i_glide_ligand_efficiency_ln>
-1.85307

> <r_i_glide_gscore>
-8.27531

> <r_i_glide_lipo>
-3.09653

> <r_i_glide_hbond>
-0.978934

> <r_i_glide_metal>
-0

> <r_i_glide_rewards>
-0.660103

> <r_i_glide_evdw>
-49.6311

> <r_i_glide_ecoul>
-11.258

> <r_i_glide_erotb>
0.630509

> <r_i_glide_esite>
0

> <r_i_glide_emodel>
-84.776

> <r_i_glide_energy>
-60.8891

> <r_i_glide_einternal>
8.71648

> <i_i_glide_confnum>
27

> <i_i_glide_posenum>
171

> <r_i_glide_eff_state_penalty>
0

$$$$
6
                    3D
 Structure written by MMmdl.
 59 62  0  0  1  0            999 V2000
  -21.9551   13.1667  -29.7387 C   0  0  0  0  0  0
  -22.8123   14.1846  -30.1412 C   0  0  0  0  0  0
  -21.0203   13.4118  -28.7377 C   0  0  0  0  0  0
  -22.7339   15.4348  -29.5331 C   0  0  0  0  0  0
  -20.9280   14.6615  -28.1191 C   0  0  0  0  0  0
  -21.7935   15.7031  -28.5271 C   0  0  0  0  0  0
  -21.3932   14.0571  -20.5923 C   0  0  0  0  0  0
  -22.2708   15.0080  -20.2045 C   0  0  0  0  0  0
  -20.5073   19.3190  -31.8515 C   0  0  0  0  0  0
  -20.9581   21.2865  -32.8953 C   0  0  0  0  0  0
  -20.3230   19.8729  -30.6231 C   0  0  0  0  0  0
  -20.4104   14.2708  -21.6294 C   0  0  0  0  0  0
  -22.3341   16.3258  -20.8018 C   0  0  0  0  0  0
  -20.4849   21.3311  -30.5289 C   0  0  0  0  0  0
  -20.0229   19.0080  -29.4784 C   0  0  0  0  0  0
  -20.0001   19.3392  -28.1671 C   0  0  0  0  0  0
  -19.7336   18.3631  -27.1324 C   0  0  0  0  0  0
  -22.3960   17.5605  -23.8032 C   0  0  0  0  0  0
  -19.8793   14.9041  -27.0354 C   0  0  0  0  0  0
  -20.1915   16.1353  -26.1594 C   0  0  0  0  0  0
  -21.8074   17.0555  -27.7900 C   0  0  1  0  0  0
  -21.3978   17.7421  -22.6381 C   0  0  0  0  0  0
  -23.0757   17.1783  -26.9047 C   0  0  0  0  0  0
  -23.1779   18.4347  -25.9991 C   0  0  0  0  0  0
  -20.7992   20.0162  -32.9879 N   0  0  0  0  0  0
  -20.8120   21.9226  -31.6996 N   0  0  0  0  0  0
  -20.4453   15.5220  -22.1522 N   0  0  0  0  0  0
  -21.3855   16.5394  -21.7789 N   0  0  0  0  0  0
  -20.5221   17.2451  -27.0703 N   0  0  0  0  0  0
  -22.3128   18.4410  -24.8131 N   0  0  0  0  0  0
  -19.6096   13.4204  -22.0038 O   0  0  0  0  0  0
  -23.1949   17.1436  -20.4727 O   0  0  0  0  0  0
  -20.3573   22.0523  -29.5444 O   0  0  0  0  0  0
  -18.8187   18.5766  -26.3331 O   0  0  0  0  0  0
  -23.2102   16.6363  -23.8040 O   0  0  0  0  0  0
  -22.0070   12.1947  -30.2086 H   0  0  0  0  0  0
  -23.5405   14.0024  -30.9197 H   0  0  0  0  0  0
  -20.3505   12.6209  -28.4386 H   0  0  0  0  0  0
  -23.4256   16.2056  -29.8423 H   0  0  0  0  0  0
  -21.4030   13.0907  -20.1089 H   0  0  0  0  0  0
  -22.9750   14.7900  -19.4152 H   0  0  0  0  0  0
  -20.4290   18.2458  -31.9717 H   0  0  0  0  0  0
  -21.2142   21.8883  -33.7632 H   0  0  0  0  0  0
  -19.8081   17.9686  -29.7161 H   0  0  0  0  0  0
  -20.1770   20.3404  -27.8071 H   0  0  0  0  0  0
  -18.9062   15.0192  -27.5134 H   0  0  0  0  0  0
  -19.7840   14.0236  -26.3986 H   0  0  0  0  0  0
  -19.4109   16.3748  -25.4381 H   0  0  0  0  0  0
  -21.0409   15.9091  -25.5162 H   0  0  0  0  0  0
  -21.9337   17.8105  -28.5625 H   0  0  0  0  0  0
  -20.3993   17.9544  -23.0240 H   0  0  0  0  0  0
  -21.6966   18.6220  -22.0658 H   0  0  0  0  0  0
  -23.9434   17.1856  -27.5647 H   0  0  0  0  0  0
  -23.2007   16.2741  -26.3085 H   0  0  0  0  0  0
  -22.9129   19.3129  -26.5866 H   0  0  0  0  0  0
  -24.2172   18.5912  -25.6988 H   0  0  0  0  0  0
  -20.9587   22.9153  -31.6414 H   0  0  0  0  0  0
  -19.8180   15.8289  -22.8815 H   0  0  0  0  0  0
  -21.6091   19.1619  -24.7663 H   0  0  0  0  0  0
  1  2  1  0  0  0
  1  3  2  0  0  0
  1 36  1  0  0  0
  2  4  2  0  0  0
  2 37  1  0  0  0
  3  5  1  0  0  0
  3 38  1  0  0  0
  4  6  1  0  0  0
  4 39  1  0  0  0
  5  6  2  0  0  0
  5 19  1  0  0  0
  6 21  1  0  0  0
  7  8  2  0  0  0
  7 12  1  0  0  0
  7 40  1  0  0  0
  8 13  1  0  0  0
  8 41  1  0  0  0
  9 11  2  0  0  0
  9 25  1  0  0  0
  9 42  1  0  0  0
 10 25  2  0  0  0
 10 26  1  0  0  0
 10 43  1  0  0  0
 11 14  1  0  0  0
 11 15  1  0  0  0
 12 27  1  0  0  0
 12 31  2  0  0  0
 13 28  1  0  0  0
 13 32  2  0  0  0
 14 26  1  0  0  0
 14 33  2  0  0  0
 15 16  2  0  0  0
 15 44  1  0  0  0
 16 17  1  0  0  0
 16 45  1  0  0  0
 17 29  1  0  0  0
 17 34  2  0  0  0
 18 22  1  0  0  0
 18 30  1  0  0  0
 18 35  2  0  0  0
 19 20  1  0  0  0
 19 46  1  0  0  0
 19 47  1  0  0  0
 20 29  1  0  0  0
 20 48  1  0  0  0
 20 49  1  0  0  0
 21 23  1  0  0  0
 21 29  1  0  0  0
 21 50  1  0  0  0
 22 28  1  0  0  0
 22 51  1  0  0  0
 22 52  1  0  0  0
 23 24  1  0  0  0
 23 53  1  0  0  0
 23 54  1  0  0  0
 24 30  1  0  0  0
 24 55  1  0  0  0
 24 56  1  0  0  0
 26 57  1  0  0  0
 27 28  1  0  0  0
 27 58  1  0  0  0
 30 59  1  0  0  0
M  END
> <s_i_glide_gridfile>
Cov2_glide-grid_1

> <i_i_glide_lignum>
54

> <i_i_glide_rotatable_bonds>
9

> <r_i_docking_score>
-8.26903

> <r_i_glide_ligand_efficiency>
-0.236258

> <r_i_glide_ligand_efficiency_sa>
-0.772816

> <r_i_glide_ligand_efficiency_ln>
-1.81524

> <r_i_glide_gscore>
-8.26903

> <r_i_glide_lipo>
-2.91208

> <r_i_glide_hbond>
-0.829919

> <r_i_glide_metal>
-0

> <r_i_glide_rewards>
-0.785889

> <r_i_glide_evdw>
-45.7611

> <r_i_glide_ecoul>
-13.8115

> <r_i_glide_erotb>
0.624349

> <r_i_glide_esite>
-0.00571425

> <r_i_glide_emodel>
-87.4145

> <r_i_glide_energy>
-59.5726

> <r_i_glide_einternal>
8.52854

> <i_i_glide_confnum>
14

> <i_i_glide_posenum>
54

> <r_i_glide_eff_state_penalty>
0

$$$$
31
                    3D
 Structure written by MMmdl.
 54 57  0  0  1  0            999 V2000
  -25.3529   18.1045  -32.4012 C   0  0  0  0  0  0
  -25.2208   19.1035  -31.4439 C   0  0  0  0  0  0
  -24.5302   16.9819  -32.3727 C   0  0  0  0  0  0
  -24.2668   18.9936  -30.4348 C   0  0  0  0  0  0
  -22.7233   15.6954  -31.2724 C   0  0  0  0  0  0
  -21.7723   15.5835  -30.2648 C   0  0  0  0  0  0
  -22.4516   17.7074  -29.3502 C   0  0  0  0  0  0
  -23.5602   16.8318  -31.3513 C   0  0  0  0  0  0
  -23.4230   17.8564  -30.3690 C   0  0  0  0  0  0
  -21.6269   16.5757  -29.2972 C   0  0  0  0  0  0
  -22.4113   15.1071  -20.4002 C   0  0  0  0  0  0
  -21.6063   14.0501  -20.6334 C   0  0  0  0  0  0
  -19.8881   20.1524  -26.0746 C   0  0  0  0  0  0
  -18.4108   21.8239  -25.6096 C   0  0  0  0  0  0
  -19.1634   19.7503  -27.1635 C   0  0  0  0  0  0
  -22.3182   16.3499  -21.1335 C   0  0  0  0  0  0
  -20.6088   14.0353  -21.6819 C   0  0  0  0  0  0
  -17.5266   21.4835  -26.7484 C   0  0  0  0  0  0
  -19.5196   18.6503  -28.0428 C   0  0  0  0  0  0
  -20.7312   15.1925  -24.7810 C   0  0  0  0  0  0
  -19.7337   15.3178  -23.6085 C   0  0  0  0  0  0
  -21.0090   15.2636  -27.2356 C   0  0  0  0  0  0
  -20.5626   16.3894  -28.2013 C   0  0  2  0  0  0
  -19.5084   21.2155  -25.2911 N   0  0  0  0  0  0
  -18.0079   20.4404  -27.4880 N   0  0  0  0  0  0
  -21.2484   16.3924  -21.9688 N   0  0  0  0  0  0
  -20.4549   15.2424  -22.3206 N   0  0  0  0  0  0
  -20.1882   17.6247  -27.4826 N   0  0  0  0  0  0
  -20.2022   15.1732  -26.0116 N   0  0  0  0  0  0
  -23.1262   17.2699  -21.0402 O   0  0  0  0  0  0
  -20.0120   13.0109  -22.0017 O   0  0  0  0  0  0
  -16.4666   22.0473  -27.0144 O   0  0  0  0  0  0
  -19.2107   18.6432  -29.2335 O   0  0  0  0  0  0
  -21.9483   15.1536  -24.5877 O   0  0  0  0  0  0
  -26.0915   18.2048  -33.1835 H   0  0  0  0  0  0
  -25.8623   19.9713  -31.4843 H   0  0  0  0  0  0
  -24.6299   16.2190  -33.1306 H   0  0  0  0  0  0
  -24.1705   19.7723  -29.6925 H   0  0  0  0  0  0
  -22.8105   14.9100  -32.0033 H   0  0  0  0  0  0
  -21.1379   14.7094  -30.2439 H   0  0  0  0  0  0
  -22.3699   18.4867  -28.6086 H   0  0  0  0  0  0
  -23.1491   15.0534  -19.6126 H   0  0  0  0  0  0
  -21.7134   13.1514  -20.0406 H   0  0  0  0  0  0
  -20.8073   19.6570  -25.7906 H   0  0  0  0  0  0
  -18.1101   22.6578  -24.9817 H   0  0  0  0  0  0
  -19.2107   16.2698  -23.6804 H   0  0  0  0  0  0
  -18.9671   14.5455  -23.7056 H   0  0  0  0  0  0
  -20.9619   14.2982  -27.7406 H   0  0  0  0  0  0
  -22.0695   15.4094  -27.0099 H   0  0  0  0  0  0
  -19.6476   16.0422  -28.6920 H   0  0  0  0  0  0
  -17.4614   20.1796  -28.2991 H   0  0  0  0  0  0
  -21.1386   17.1410  -22.6374 H   0  0  0  0  0  0
  -20.3896   17.6435  -26.4952 H   0  0  0  0  0  0
  -19.2045   15.0600  -26.1169 H   0  0  0  0  0  0
  1  2  1  0  0  0
  1  3  2  0  0  0
  1 35  1  0  0  0
  2  4  2  0  0  0
  2 36  1  0  0  0
  3  8  1  0  0  0
  3 37  1  0  0  0
  4  9  1  0  0  0
  4 38  1  0  0  0
  5  6  2  0  0  0
  5  8  1  0  0  0
  5 39  1  0  0  0
  6 10  1  0  0  0
  6 40  1  0  0  0
  7  9  1  0  0  0
  7 10  2  0  0  0
  7 41  1  0  0  0
  8  9  2  0  0  0
 10 23  1  0  0  0
 11 12  2  0  0  0
 11 16  1  0  0  0
 11 42  1  0  0  0
 12 17  1  0  0  0
 12 43  1  0  0  0
 13 15  2  0  0  0
 13 24  1  0  0  0
 13 44  1  0  0  0
 14 18  1  0  0  0
 14 24  2  0  0  0
 14 45  1  0  0  0
 15 19  1  0  0  0
 15 25  1  0  0  0
 16 26  1  0  0  0
 16 30  2  0  0  0
 17 27  1  0  0  0
 17 31  2  0  0  0
 18 25  1  0  0  0
 18 32  2  0  0  0
 19 28  1  0  0  0
 19 33  2  0  0  0
 20 21  1  0  0  0
 20 29  1  0  0  0
 20 34  2  0  0  0
 21 27  1  0  0  0
 21 46  1  0  0  0
 21 47  1  0  0  0
 22 23  1  0  0  0
 22 29  1  0  0  0
 22 48  1  0  0  0
 22 49  1  0  0  0
 23 28  1  0  0  0
 23 50  1  0  0  0
 25 51  1  0  0  0
 26 27  1  0  0  0
 26 52  1  0  0  0
 28 53  1  0  0  0
 29 54  1  0  0  0
M  END
> <s_i_glide_gridfile>
Cov2_glide-grid_1

> <i_i_glide_lignum>
18

> <i_i_glide_rotatable_bonds>
9

> <r_i_docking_score>
-8.25328

> <r_i_glide_ligand_efficiency>
-0.242743

> <r_i_glide_ligand_efficiency_sa>
-0.786395

> <r_i_glide_ligand_efficiency_ln>
-1.82338

> <r_i_glide_gscore>
-8.25328

> <r_i_glide_lipo>
-3.17902

> <r_i_glide_hbond>
-0.649506

> <r_i_glide_metal>
-0

> <r_i_glide_rewards>
-0.96076

> <r_i_glide_evdw>
-53.2503

> <r_i_glide_ecoul>
-9.14088

> <r_i_glide_erotb>
0.569655

> <r_i_glide_esite>
0

> <r_i_glide_emodel>
-89.9168

> <r_i_glide_energy>
-62.3912

> <r_i_glide_einternal>
6.16714

> <i_i_glide_confnum>
28

> <i_i_glide_posenum>
97

> <r_i_glide_eff_state_penalty>
0

$$$$
35
                    3D
 Structure written by MMmdl.
 53 56  0  0  1  0            999 V2000
  -23.6109   15.5917  -31.1985 C   0  0  0  0  0  0
  -22.9293   16.7878  -31.4225 C   0  0  0  0  0  0
  -18.3431   23.2487  -24.8006 C   0  0  0  0  0  0
  -19.0989   22.2281  -25.3721 C   0  0  0  0  0  0
  -23.0837   14.6299  -30.3335 C   0  0  0  0  0  0
  -21.7014   17.0174  -30.8022 C   0  0  0  0  0  0
  -17.0216   23.4036  -25.2096 C   0  0  0  0  0  0
  -17.2055   21.6442  -26.7202 C   0  0  0  0  0  0
  -18.5347   21.3984  -26.3483 C   0  0  0  0  0  0
  -21.8785   14.8783  -29.6766 C   0  0  0  0  0  0
  -21.1648   16.0504  -29.9488 C   0  0  0  0  0  0
  -21.0104   14.1716  -20.8331 C   0  0  0  0  0  0
  -22.0291   14.9646  -21.2244 C   0  0  0  0  0  0
  -19.7966   14.0215  -21.6017 C   0  0  0  0  0  0
  -22.0321   15.6933  -22.4771 C   0  0  0  0  0  0
  -19.3420   20.2945  -26.8926 C   0  0  0  0  0  0
  -18.9370   19.3390  -27.7573 C   0  0  0  0  0  0
  -19.8202   18.2723  -28.1555 C   0  0  0  0  0  0
  -20.5648   15.0229  -25.7106 C   0  0  0  0  0  0
  -21.0800   13.9820  -28.7524 C   0  0  0  0  0  0
  -19.8079   15.9907  -29.2602 C   0  0  2  0  0  0
  -20.0185   14.9246  -28.1576 C   0  0  1  0  0  0
  -20.7889   16.0624  -24.5955 C   0  0  0  0  0  0
  -16.4459   22.6221  -26.1615 N   0  0  0  0  0  0
  -19.8269   14.6673  -22.7896 N   0  0  0  0  0  0
  -20.9373   15.4394  -23.2686 N   0  0  0  0  0  0
  -19.2108   17.2765  -28.8269 N   0  0  0  0  0  0
  -20.4820   15.5581  -26.9268 N   0  0  0  0  0  0
  -18.8083   13.4211  -21.2043 O   0  0  0  0  0  0
  -22.9656   16.4394  -22.7785 O   0  0  0  0  0  0
  -21.0123   18.2394  -27.8452 O   0  0  0  0  0  0
  -20.4106   13.8222  -25.4948 O   0  0  0  0  0  0
  -24.5534   15.4138  -31.6972 H   0  0  0  0  0  0
  -23.3409   17.5250  -32.0965 H   0  0  0  0  0  0
  -18.7556   23.8837  -24.0297 H   0  0  0  0  0  0
  -20.1157   22.0806  -25.0381 H   0  0  0  0  0  0
  -23.6175   13.7057  -30.1714 H   0  0  0  0  0  0
  -21.1583   17.9250  -31.0180 H   0  0  0  0  0  0
  -16.4105   24.1683  -24.7536 H   0  0  0  0  0  0
  -16.7140   21.0448  -27.4705 H   0  0  0  0  0  0
  -21.0760   13.6316  -19.8993 H   0  0  0  0  0  0
  -22.9064   15.0488  -20.5991 H   0  0  0  0  0  0
  -20.3614   20.2619  -26.5278 H   0  0  0  0  0  0
  -17.9371   19.3203  -28.1613 H   0  0  0  0  0  0
  -20.5962   13.2056  -29.3471 H   0  0  0  0  0  0
  -21.6662   13.4605  -27.9941 H   0  0  0  0  0  0
  -19.1187   15.5559  -29.9849 H   0  0  0  0  0  0
  -19.0833   14.3910  -27.9698 H   0  0  0  0  0  0
  -19.9297   16.7345  -24.5678 H   0  0  0  0  0  0
  -21.6464   16.6787  -24.8739 H   0  0  0  0  0  0
  -19.0569   14.6579  -23.4422 H   0  0  0  0  0  0
  -18.2266   17.3854  -29.0408 H   0  0  0  0  0  0
  -20.7204   16.5386  -27.0354 H   0  0  0  0  0  0
  1  2  1  0  0  0
  1  5  2  0  0  0
  1 33  1  0  0  0
  2  6  2  0  0  0
  2 34  1  0  0  0
  3  4  2  0  0  0
  3  7  1  0  0  0
  3 35  1  0  0  0
  4  9  1  0  0  0
  4 36  1  0  0  0
  5 10  1  0  0  0
  5 37  1  0  0  0
  6 11  1  0  0  0
  6 38  1  0  0  0
  7 24  2  0  0  0
  7 39  1  0  0  0
  8  9  2  0  0  0
  8 24  1  0  0  0
  8 40  1  0  0  0
  9 16  1  0  0  0
 10 11  2  0  0  0
 10 20  1  0  0  0
 11 21  1  0  0  0
 12 13  2  0  0  0
 12 14  1  0  0  0
 12 41  1  0  0  0
 13 15  1  0  0  0
 13 42  1  0  0  0
 14 25  1  0  0  0
 14 29  2  0  0  0
 15 26  1  0  0  0
 15 30  2  0  0  0
 16 17  2  0  0  0
 16 43  1  0  0  0
 17 18  1  0  0  0
 17 44  1  0  0  0
 18 27  1  0  0  0
 18 31  2  0  0  0
 19 23  1  0  0  0
 19 28  1  0  0  0
 19 32  2  0  0  0
 20 22  1  0  0  0
 20 45  1  0  0  0
 20 46  1  0  0  0
 21 22  1  0  0  0
 21 27  1  0  0  0
 21 47  1  0  0  0
 22 28  1  0  0  0
 22 48  1  0  0  0
 23 26  1  0  0  0
 23 49  1  0  0  0
 23 50  1  0  0  0
 25 26  1  0  0  0
 25 51  1  0  0  0
 27 52  1  0  0  0
 28 53  1  0  0  0
M  END
> <s_i_glide_gridfile>
Cov2_glide-grid_1

> <i_i_glide_lignum>
15

> <i_i_glide_rotatable_bonds>
8

> <r_i_docking_score>
-8.23807

> <r_i_glide_ligand_efficiency>
-0.25744

> <r_i_glide_ligand_efficiency_sa>
-0.81732

> <r_i_glide_ligand_efficiency_ln>
-1.84473

> <r_i_glide_gscore>
-8.23807

> <r_i_glide_lipo>
-3.44368

> <r_i_glide_hbond>
-0.629852

> <r_i_glide_metal>
-0

> <r_i_glide_rewards>
-1.12009

> <r_i_glide_evdw>
-54.1687

> <r_i_glide_ecoul>
-6.51421

> <r_i_glide_erotb>
0.641114

> <r_i_glide_esite>
0

> <r_i_glide_emodel>
-88.0296

> <r_i_glide_energy>
-60.6829

> <r_i_glide_einternal>
4.69008

> <i_i_glide_confnum>
5

> <i_i_glide_posenum>
201

> <r_i_glide_eff_state_penalty>
0

$$$$
38
                    3D
 Structure written by MMmdl.
 54 57  0  0  1  0            999 V2000
  -20.4988   13.1545  -29.6006 C   0  0  0  0  0  0
  -21.8422   13.0210  -29.2667 C   0  0  0  0  0  0
  -19.7764   14.2774  -29.2034 C   0  0  0  0  0  0
  -22.4845   14.0043  -28.5180 C   0  0  0  0  0  0
  -19.7153   16.4795  -28.0813 C   0  0  0  0  0  0
  -20.3462   17.4456  -27.3045 C   0  0  0  0  0  0
  -22.3994   16.1770  -27.3321 C   0  0  0  0  0  0
  -21.9887   15.3930  -21.0338 C   0  0  0  0  0  0
  -20.0094   15.4853  -22.3920 C   0  0  0  0  0  0
  -20.4118   13.5885  -21.1218 C   0  0  0  0  0  0
  -20.4072   15.3077  -28.4663 C   0  0  0  0  0  0
  -21.7802   15.1615  -28.1013 C   0  0  0  0  0  0
  -21.6814   17.3038  -26.9184 C   0  0  0  0  0  0
  -21.1721   16.1046  -21.9179 C   0  0  0  0  0  0
  -21.6039   14.1185  -20.6238 C   0  0  0  0  0  0
  -19.4240   22.5776  -25.0713 C   0  0  0  0  0  0
  -17.8615   21.8993  -26.7899 C   0  0  0  0  0  0
  -18.4479   23.3629  -24.5731 C   0  0  0  0  0  0
  -19.1235   21.8028  -26.2894 C   0  0  0  0  0  0
  -16.7863   22.6210  -26.1208 C   0  0  0  0  0  0
  -20.1331   21.0210  -26.9895 C   0  0  0  0  0  0
  -22.3077   17.4368  -23.7313 C   0  0  0  0  0  0
  -21.5652   17.4950  -22.3930 C   0  0  0  0  0  0
  -22.3130   19.8087  -26.6258 C   0  0  0  0  0  0
  -22.3729   18.3650  -26.0534 C   0  0  2  0  0  0
  -19.6172   14.2462  -22.0023 N   0  0  0  0  0  0
  -17.1829   23.4171  -25.0920 N   0  0  0  0  0  0
  -21.1394   20.5884  -26.2120 N   0  0  0  0  0  0
  -21.9149   18.3177  -24.6603 N   0  0  0  0  0  0
  -15.6107   22.4406  -26.4016 O   0  0  0  0  0  0
  -20.0771   20.7779  -28.1966 O   0  0  0  0  0  0
  -23.2106   16.6216  -23.9125 O   0  0  0  0  0  0
  -22.3660   13.4221  -19.7520 F   0  0  0  0  0  0
  -20.0145   12.3803  -30.1773 H   0  0  0  0  0  0
  -22.3862   12.1430  -29.5842 H   0  0  0  0  0  0
  -18.7366   14.3806  -29.4794 H   0  0  0  0  0  0
  -23.5263   13.8914  -28.2576 H   0  0  0  0  0  0
  -18.6860   16.6162  -28.3854 H   0  0  0  0  0  0
  -19.7762   18.3068  -26.9946 H   0  0  0  0  0  0
  -23.4357   16.0553  -27.0500 H   0  0  0  0  0  0
  -22.9060   15.8235  -20.6604 H   0  0  0  0  0  0
  -19.3576   15.9868  -23.0937 H   0  0  0  0  0  0
  -20.0702   12.6203  -20.7986 H   0  0  0  0  0  0
  -20.3852   22.5480  -24.5808 H   0  0  0  0  0  0
  -17.5867   21.3798  -27.6978 H   0  0  0  0  0  0
  -18.5341   23.9294  -23.6537 H   0  0  0  0  0  0
  -22.2106   17.9761  -21.6583 H   0  0  0  0  0  0
  -20.6677   18.1118  -22.4712 H   0  0  0  0  0  0
  -22.4245   19.7847  -27.7125 H   0  0  0  0  0  0
  -23.1827   20.3622  -26.2665 H   0  0  0  0  0  0
  -23.4403   18.1247  -26.0572 H   0  0  0  0  0  0
  -16.4285   23.8489  -24.5695 H   0  0  0  0  0  0
  -21.1079   20.8472  -25.2377 H   0  0  0  0  0  0
  -21.1260   18.9058  -24.4427 H   0  0  0  0  0  0
  1  2  1  0  0  0
  1  3  2  0  0  0
  1 34  1  0  0  0
  2  4  2  0  0  0
  2 35  1  0  0  0
  3 11  1  0  0  0
  3 36  1  0  0  0
  4 12  1  0  0  0
  4 37  1  0  0  0
  5  6  2  0  0  0
  5 11  1  0  0  0
  5 38  1  0  0  0
  6 13  1  0  0  0
  6 39  1  0  0  0
  7 12  1  0  0  0
  7 13  2  0  0  0
  7 40  1  0  0  0
  8 14  1  0  0  0
  8 15  2  0  0  0
  8 41  1  0  0  0
  9 14  2  0  0  0
  9 26  1  0  0  0
  9 42  1  0  0  0
 10 15  1  0  0  0
 10 26  2  0  0  0
 10 43  1  0  0  0
 11 12  2  0  0  0
 13 25  1  0  0  0
 14 23  1  0  0  0
 15 33  1  0  0  0
 16 18  2  0  0  0
 16 19  1  0  0  0
 16 44  1  0  0  0
 17 19  2  0  0  0
 17 20  1  0  0  0
 17 45  1  0  0  0
 18 27  1  0  0  0
 18 46  1  0  0  0
 19 21  1  0  0  0
 20 27  1  0  0  0
 20 30  2  0  0  0
 21 28  1  0  0  0
 21 31  2  0  0  0
 22 23  1  0  0  0
 22 29  1  0  0  0
 22 32  2  0  0  0
 23 47  1  0  0  0
 23 48  1  0  0  0
 24 25  1  0  0  0
 24 28  1  0  0  0
 24 49  1  0  0  0
 24 50  1  0  0  0
 25 29  1  0  0  0
 25 51  1  0  0  0
 27 52  1  0  0  0
 28 53  1  0  0  0
 29 54  1  0  0  0
M  END
> <s_i_glide_gridfile>
Cov2_glide-grid_1

> <i_i_glide_lignum>
34

> <i_i_glide_rotatable_bonds>
9

> <r_i_docking_score>
-8.22347

> <r_i_glide_ligand_efficiency>
-0.249196

> <r_i_glide_ligand_efficiency_sa>
-0.799305

> <r_i_glide_ligand_efficiency_ln>
-1.82886

> <r_i_glide_gscore>
-8.22347

> <r_i_glide_lipo>
-3.44125

> <r_i_glide_hbond>
-0.537283

> <r_i_glide_metal>
-0

> <r_i_glide_rewards>
-0.417255

> <r_i_glide_evdw>
-47.0728

> <r_i_glide_ecoul>
-13.2022

> <r_i_glide_erotb>
0.607467

> <r_i_glide_esite>
-0.101189

> <r_i_glide_emodel>
-87.4817

> <r_i_glide_energy>
-60.275

> <r_i_glide_einternal>
6.19659

> <i_i_glide_confnum>
133

> <i_i_glide_posenum>
368

> <r_i_glide_eff_state_penalty>
0

$$$$
18
                    3D
 Structure written by MMmdl.
 57 60  0  0  1  0            999 V2000
  -17.4009   22.9272  -25.4865 C   0  0  0  0  0  0
  -16.6295   22.3769  -26.5038 C   0  0  0  0  0  0
  -18.6229   22.3551  -25.1379 C   0  0  0  0  0  0
  -17.0738   21.2565  -27.2023 C   0  0  0  0  0  0
  -20.3322   20.5990  -25.4890 C   0  0  0  0  0  0
  -20.7942   19.5032  -26.2109 C   0  0  0  0  0  0
  -18.8127   19.5315  -27.5891 C   0  0  0  0  0  0
  -19.0999   21.2101  -25.8243 C   0  0  0  0  0  0
  -18.3178   20.6563  -26.8821 C   0  0  0  0  0  0
  -20.0551   18.9713  -27.2698 C   0  0  0  0  0  0
  -22.3490   15.7661  -21.8985 C   0  0  0  0  0  0
  -22.4121   14.5121  -20.0032 C   0  0  0  0  0  0
  -21.4685   14.9566  -22.5451 C   0  0  0  0  0  0
  -20.9349   13.8217  -21.7818 C   0  0  0  0  0  0
  -22.8363   22.2212  -33.0154 C   0  0  0  0  0  0
  -20.8025   21.2857  -32.6738 C   0  0  0  0  0  0
  -21.1475   15.2046  -23.9563 C   0  0  0  0  0  0
  -20.4815   14.3835  -24.8035 C   0  0  0  0  0  0
  -20.2628   14.6686  -26.2007 C   0  0  0  0  0  0
  -21.3227   19.1423  -30.1140 C   0  0  0  0  0  0
  -23.0612   20.9465  -32.2542 C   0  0  0  0  0  0
  -21.3724   19.1058  -31.6517 C   0  0  0  0  0  0
  -19.8714   16.4889  -27.8625 C   0  0  0  0  0  0
  -20.6328   17.8102  -28.1003 C   0  0  2  0  0  0
  -22.8149   15.5578  -20.6314 N   0  0  0  0  0  0
  -21.5005   13.6727  -20.5668 N   0  0  0  0  0  0
  -21.5152   22.2967  -33.2018 N   0  0  0  0  0  0
  -21.7221   20.4235  -32.1993 N   0  0  0  0  0  0
  -20.0497   15.9629  -26.5072 N   0  0  0  0  0  0
  -20.7394   18.0751  -29.5427 N   0  0  0  0  0  0
  -20.0721   13.0210  -22.1227 O   0  0  0  0  0  0
  -23.6993   22.9975  -33.4148 O   0  0  0  0  0  0
  -19.5765   21.1813  -32.6558 O   0  0  0  0  0  0
  -20.2882   13.7706  -27.0431 O   0  0  0  0  0  0
  -21.7906   20.0840  -29.4699 O   0  0  0  0  0  0
  -17.0418   23.7931  -24.9478 H   0  0  0  0  0  0
  -15.6872   22.8354  -26.7560 H   0  0  0  0  0  0
  -19.2040   22.7775  -24.3282 H   0  0  0  0  0  0
  -16.4768   20.8407  -28.0006 H   0  0  0  0  0  0
  -20.9223   21.0046  -24.6778 H   0  0  0  0  0  0
  -21.7517   19.0767  -25.9545 H   0  0  0  0  0  0
  -18.2309   19.1259  -28.4012 H   0  0  0  0  0  0
  -22.7826   16.6142  -22.4112 H   0  0  0  0  0  0
  -22.7710   14.2716  -19.0066 H   0  0  0  0  0  0
  -21.5083   16.1430  -24.3644 H   0  0  0  0  0  0
  -20.0968   13.4215  -24.4966 H   0  0  0  0  0  0
  -23.7141   20.2676  -32.8003 H   0  0  0  0  0  0
  -23.4698   21.0952  -31.2554 H   0  0  0  0  0  0
  -20.4098   18.7700  -32.0373 H   0  0  0  0  0  0
  -22.1141   18.3721  -31.9713 H   0  0  0  0  0  0
  -18.8105   16.6239  -28.0637 H   0  0  0  0  0  0
  -20.2101   15.7533  -28.5966 H   0  0  0  0  0  0
  -21.6631   17.6438  -27.7756 H   0  0  0  0  0  0
  -21.2065   12.8373  -20.0807 H   0  0  0  0  0  0
  -21.0970   23.0027  -33.7908 H   0  0  0  0  0  0
  -19.9365   16.6181  -25.7476 H   0  0  0  0  0  0
  -20.4965   17.3049  -30.1503 H   0  0  0  0  0  0
  1  2  1  0  0  0
  1  3  2  0  0  0
  1 36  1  0  0  0
  2  4  2  0  0  0
  2 37  1  0  0  0
  3  8  1  0  0  0
  3 38  1  0  0  0
  4  9  1  0  0  0
  4 39  1  0  0  0
  5  6  2  0  0  0
  5  8  1  0  0  0
  5 40  1  0  0  0
  6 10  1  0  0  0
  6 41  1  0  0  0
  7  9  1  0  0  0
  7 10  2  0  0  0
  7 42  1  0  0  0
  8  9  2  0  0  0
 10 24  1  0  0  0
 11 13  2  0  0  0
 11 25  1  0  0  0
 11 43  1  0  0  0
 12 25  2  0  0  0
 12 26  1  0  0  0
 12 44  1  0  0  0
 13 14  1  0  0  0
 13 17  1  0  0  0
 14 26  1  0  0  0
 14 31  2  0  0  0
 15 21  1  0  0  0
 15 27  1  0  0  0
 15 32  2  0  0  0
 16 27  1  0  0  0
 16 28  1  0  0  0
 16 33  2  0  0  0
 17 18  2  0  0  0
 17 45  1  0  0  0
 18 19  1  0  0  0
 18 46  1  0  0  0
 19 29  1  0  0  0
 19 34  2  0  0  0
 20 22  1  0  0  0
 20 30  1  0  0  0
 20 35  2  0  0  0
 21 28  1  0  0  0
 21 47  1  0  0  0
 21 48  1  0  0  0
 22 28  1  0  0  0
 22 49  1  0  0  0
 22 50  1  0  0  0
 23 24  1  0  0  0
 23 29  1  0  0  0
 23 51  1  0  0  0
 23 52  1  0  0  0
 24 30  1  0  0  0
 24 53  1  0  0  0
 26 54  1  0  0  0
 27 55  1  0  0  0
 29 56  1  0  0  0
 30 57  1  0  0  0
M  END
> <s_i_glide_gridfile>
Cov2_glide-grid_1

> <i_i_glide_lignum>
29

> <i_i_glide_rotatable_bonds>
10

> <r_i_docking_score>
-8.20975

> <r_i_glide_ligand_efficiency>
-0.234564

> <r_i_glide_ligand_efficiency_sa>
-0.767275

> <r_i_glide_ligand_efficiency_ln>
-1.80222

> <r_i_glide_gscore>
-8.20975

> <r_i_glide_lipo>
-2.39699

> <r_i_glide_hbond>
-0.744377

> <r_i_glide_metal>
-0

> <r_i_glide_rewards>
-1.34623

> <r_i_glide_evdw>
-52.2865

> <r_i_glide_ecoul>
-11.5801

> <r_i_glide_erotb>
0.629202

> <r_i_glide_esite>
0

> <r_i_glide_emodel>
-92.3244

> <r_i_glide_energy>
-63.8667

> <r_i_glide_einternal>
11.5644

> <i_i_glide_confnum>
22

> <i_i_glide_posenum>
236

> <r_i_glide_eff_state_penalty>
0

$$$$
40
                    3D
 Structure written by MMmdl.
 60 63  0  0  1  0            999 V2000
  -21.4866   12.6242  -29.8925 C   0  0  0  0  0  0
  -22.7669   13.1182  -29.6923 C   0  0  0  0  0  0
  -20.3735   13.4081  -29.6014 C   0  0  0  0  0  0
  -22.9612   14.3945  -29.1752 C   0  0  0  0  0  0
  -19.4269   15.5419  -28.7897 C   0  0  0  0  0  0
  -19.6176   16.7820  -28.1827 C   0  0  0  0  0  0
  -22.0133   16.4899  -28.2657 C   0  0  0  0  0  0
  -22.0952   18.6369  -31.8558 C   0  0  0  0  0  0
  -24.4600   18.6947  -32.2743 C   0  0  0  0  0  0
  -23.3391   20.6920  -31.8869 C   0  0  0  0  0  0
  -20.5344   14.7167  -29.0876 C   0  0  0  0  0  0
  -21.8511   15.2105  -28.8481 C   0  0  0  0  0  0
  -20.9012   17.2465  -27.8828 C   0  0  0  0  0  0
  -23.2826   17.9530  -32.1368 C   0  0  0  0  0  0
  -22.1129   20.0343  -31.7305 C   0  0  0  0  0  0
  -20.8868   13.9807  -21.3402 C   0  0  0  0  0  0
  -22.0163   14.7173  -21.2913 C   0  0  0  0  0  0
  -19.6898   14.4210  -22.0222 C   0  0  0  0  0  0
  -22.1666   15.9963  -21.9588 C   0  0  0  0  0  0
  -20.6716   20.9892  -29.8789 C   0  0  0  0  0  0
  -21.3346   17.5172  -24.8320 C   0  0  0  0  0  0
  -23.2996   16.4498  -32.3153 C   0  0  0  0  0  0
  -20.8465   20.8139  -31.3916 C   0  0  0  0  0  0
  -20.9657   17.6978  -23.3469 C   0  0  0  0  0  0
  -20.3074   19.7562  -27.7237 C   0  0  0  0  0  0
  -21.1104   18.5684  -27.1210 C   0  0  2  0  0  0
  -24.5018   20.0451  -32.1542 N   0  0  0  0  0  0
  -19.8473   15.6074  -22.6625 N   0  0  0  0  0  0
  -21.0354   16.4118  -22.6239 N   0  0  0  0  0  0
  -20.4517   19.8654  -29.1764 N   0  0  0  0  0  0
  -20.8675   18.4652  -25.6682 N   0  0  0  0  0  0
  -18.6208   13.8206  -22.0006 O   0  0  0  0  0  0
  -23.2289   16.6207  -21.9324 O   0  0  0  0  0  0
  -20.7373   22.1109  -29.3727 O   0  0  0  0  0  0
  -22.0198   16.5636  -25.2015 O   0  0  0  0  0  0
  -21.3608   11.6296  -30.2807 H   0  0  0  0  0  0
  -23.6106   12.4962  -29.9380 H   0  0  0  0  0  0
  -19.3766   13.0257  -29.7769 H   0  0  0  0  0  0
  -23.9603   14.7666  -29.0028 H   0  0  0  0  0  0
  -18.4253   15.1896  -28.9907 H   0  0  0  0  0  0
  -18.7512   17.3662  -27.9130 H   0  0  0  0  0  0
  -23.0130   16.8428  -28.0549 H   0  0  0  0  0  0
  -21.1722   18.0888  -31.7436 H   0  0  0  0  0  0
  -25.3976   18.2059  -32.4999 H   0  0  0  0  0  0
  -23.4075   21.7663  -31.7943 H   0  0  0  0  0  0
  -20.8442   13.0312  -20.8232 H   0  0  0  0  0  0
  -22.8682   14.3380  -20.7460 H   0  0  0  0  0  0
  -23.6140   16.2175  -33.3335 H   0  0  0  0  0  0
  -22.3225   15.9941  -32.1330 H   0  0  0  0  0  0
  -24.0224   15.9926  -31.6348 H   0  0  0  0  0  0
  -19.9702   20.3031  -31.7970 H   0  0  0  0  0  0
  -20.8774   21.7952  -31.8710 H   0  0  0  0  0  0
  -19.9759   18.1387  -23.2426 H   0  0  0  0  0  0
  -21.6650   18.4207  -22.9196 H   0  0  0  0  0  0
  -19.2438   19.6458  -27.5054 H   0  0  0  0  0  0
  -20.6110   20.6825  -27.2280 H   0  0  0  0  0  0
  -22.1640   18.8422  -27.2345 H   0  0  0  0  0  0
  -19.0729   16.0890  -23.0965 H   0  0  0  0  0  0
  -20.3871   18.9959  -29.6845 H   0  0  0  0  0  0
  -20.4403   19.2726  -25.2392 H   0  0  0  0  0  0
  1  2  1  0  0  0
  1  3  2  0  0  0
  1 36  1  0  0  0
  2  4  2  0  0  0
  2 37  1  0  0  0
  3 11  1  0  0  0
  3 38  1  0  0  0
  4 12  1  0  0  0
  4 39  1  0  0  0
  5  6  2  0  0  0
  5 11  1  0  0  0
  5 40  1  0  0  0
  6 13  1  0  0  0
  6 41  1  0  0  0
  7 12  1  0  0  0
  7 13  2  0  0  0
  7 42  1  0  0  0
  8 14  1  0  0  0
  8 15  2  0  0  0
  8 43  1  0  0  0
  9 14  2  0  0  0
  9 27  1  0  0  0
  9 44  1  0  0  0
 10 15  1  0  0  0
 10 27  2  0  0  0
 10 45  1  0  0  0
 11 12  2  0  0  0
 13 26  1  0  0  0
 14 22  1  0  0  0
 15 23  1  0  0  0
 16 17  2  0  0  0
 16 18  1  0  0  0
 16 46  1  0  0  0
 17 19  1  0  0  0
 17 47  1  0  0  0
 18 28  1  0  0  0
 18 32  2  0  0  0
 19 29  1  0  0  0
 19 33  2  0  0  0
 20 23  1  0  0  0
 20 30  1  0  0  0
 20 34  2  0  0  0
 21 24  1  0  0  0
 21 31  1  0  0  0
 21 35  2  0  0  0
 22 48  1  0  0  0
 22 49  1  0  0  0
 22 50  1  0  0  0
 23 51  1  0  0  0
 23 52  1  0  0  0
 24 29  1  0  0  0
 24 53  1  0  0  0
 24 54  1  0  0  0
 25 26  1  0  0  0
 25 30  1  0  0  0
 25 55  1  0  0  0
 25 56  1  0  0  0
 26 31  1  0  0  0
 26 57  1  0  0  0
 28 29  1  0  0  0
 28 58  1  0  0  0
 30 59  1  0  0  0
 31 60  1  0  0  0
M  END
> <s_i_glide_gridfile>
Cov2_glide-grid_1

> <i_i_glide_lignum>
33

> <i_i_glide_rotatable_bonds>
10

> <r_i_docking_score>
-8.20169

> <r_i_glide_ligand_efficiency>
-0.234334

> <r_i_glide_ligand_efficiency_sa>
-0.766522

> <r_i_glide_ligand_efficiency_ln>
-1.80045

> <r_i_glide_gscore>
-8.20169

> <r_i_glide_lipo>
-3.87086

> <r_i_glide_hbond>
-0.652453

> <r_i_glide_metal>
-0

> <r_i_glide_rewards>
-0.230207

> <r_i_glide_evdw>
-51.1442

> <r_i_glide_ecoul>
-10.627

> <r_i_glide_erotb>
0.727353

> <r_i_glide_esite>
-0.0242588

> <r_i_glide_emodel>
-88.4319

> <r_i_glide_energy>
-61.7712

> <r_i_glide_einternal>
8.6474

> <i_i_glide_confnum>
182

> <i_i_glide_posenum>
366

> <r_i_glide_eff_state_penalty>
0

$$$$
50
                    3D
 Structure written by MMmdl.
 54 57  0  0  1  0            999 V2000
  -20.2978   13.3303  -29.6016 C   0  0  0  0  0  0
  -21.6234   13.0938  -29.2536 C   0  0  0  0  0  0
  -19.6449   14.4894  -29.2001 C   0  0  0  0  0  0
  -22.3257   14.0246  -28.4944 C   0  0  0  0  0  0
  -19.6936   16.6343  -27.9880 C   0  0  0  0  0  0
  -20.3760   17.5407  -27.1875 C   0  0  0  0  0  0
  -22.3719   16.1874  -27.2910 C   0  0  0  0  0  0
  -20.3282   15.4499  -28.4222 C   0  0  0  0  0  0
  -21.6918   15.2175  -28.0640 C   0  0  0  0  0  0
  -21.7135   17.3375  -26.8399 C   0  0  0  0  0  0
  -20.3769   13.5855  -21.1760 C   0  0  0  0  0  0
  -21.5768   14.0084  -20.7297 C   0  0  0  0  0  0
  -17.9010   21.7232  -26.7623 C   0  0  0  0  0  0
  -19.4234   22.6451  -25.1184 C   0  0  0  0  0  0
  -19.1675   21.7651  -26.2549 C   0  0  0  0  0  0
  -19.5064   14.3864  -22.0018 C   0  0  0  0  0  0
  -22.1359   15.3008  -21.0635 C   0  0  0  0  0  0
  -16.7886   22.4416  -26.1620 C   0  0  0  0  0  0
  -20.2219   21.0209  -26.9231 C   0  0  0  0  0  0
  -22.2789   17.2368  -23.7633 C   0  0  0  0  0  0
  -21.7073   17.3990  -22.3432 C   0  0  0  0  0  0
  -22.3965   19.8188  -26.5274 C   0  0  0  0  0  0
  -22.4806   18.3632  -25.9910 C   0  0  2  0  0  0
  -18.4897   23.3932  -24.6501 N   0  0  0  0  0  0
  -17.2151   23.3076  -25.1993 N   0  0  0  0  0  0
  -20.0106   15.6170  -22.2629 N   0  0  0  0  0  0
  -21.2969   16.0838  -21.8238 N   0  0  0  0  0  0
  -21.1953   20.5571  -26.1172 N   0  0  0  0  0  0
  -22.1400   18.3031  -24.5631 N   0  0  0  0  0  0
  -18.4103   14.0152  -22.4017 O   0  0  0  0  0  0
  -23.2656   15.6313  -20.7048 O   0  0  0  0  0  0
  -15.6106   22.2213  -26.4019 O   0  0  0  0  0  0
  -20.2292   20.8389  -28.1412 O   0  0  0  0  0  0
  -22.8103   16.1880  -24.1304 O   0  0  0  0  0  0
  -19.7690   12.6202  -30.2147 H   0  0  0  0  0  0
  -22.1087   12.1876  -29.5848 H   0  0  0  0  0  0
  -18.6168   14.6667  -29.4866 H   0  0  0  0  0  0
  -23.3561   13.8426  -28.2288 H   0  0  0  0  0  0
  -18.6678   16.8230  -28.2671 H   0  0  0  0  0  0
  -19.8431   18.4064  -26.8352 H   0  0  0  0  0  0
  -23.4053   16.0083  -27.0263 H   0  0  0  0  0  0
  -20.0115   12.6209  -20.8679 H   0  0  0  0  0  0
  -22.1636   13.3611  -20.0938 H   0  0  0  0  0  0
  -17.6696   21.1179  -27.6289 H   0  0  0  0  0  0
  -20.3987   22.7181  -24.6422 H   0  0  0  0  0  0
  -20.8556   18.0823  -22.3341 H   0  0  0  0  0  0
  -22.4770   17.8528  -21.7170 H   0  0  0  0  0  0
  -22.5224   19.8160  -27.6123 H   0  0  0  0  0  0
  -23.2487   20.3839  -26.1466 H   0  0  0  0  0  0
  -23.5410   18.1044  -26.0656 H   0  0  0  0  0  0
  -16.5122   23.8465  -24.7102 H   0  0  0  0  0  0
  -19.5083   16.3094  -22.8012 H   0  0  0  0  0  0
  -21.1122   20.7565  -25.1326 H   0  0  0  0  0  0
  -21.7744   19.1487  -24.1560 H   0  0  0  0  0  0
  1  2  1  0  0  0
  1  3  2  0  0  0
  1 35  1  0  0  0
  2  4  2  0  0  0
  2 36  1  0  0  0
  3  8  1  0  0  0
  3 37  1  0  0  0
  4  9  1  0  0  0
  4 38  1  0  0  0
  5  6  2  0  0  0
  5  8  1  0  0  0
  5 39  1  0  0  0
  6 10  1  0  0  0
  6 40  1  0  0  0
  7  9  1  0  0  0
  7 10  2  0  0  0
  7 41  1  0  0  0
  8  9  2  0  0  0
 10 23  1  0  0  0
 11 12  2  0  0  0
 11 16  1  0  0  0
 11 42  1  0  0  0
 12 17  1  0  0  0
 12 43  1  0  0  0
 13 15  2  0  0  0
 13 18  1  0  0  0
 13 44  1  0  0  0
 14 15  1  0  0  0
 14 24  2  0  0  0
 14 45  1  0  0  0
 15 19  1  0  0  0
 16 26  1  0  0  0
 16 30  2  0  0  0
 17 27  1  0  0  0
 17 31  2  0  0  0
 18 25  1  0  0  0
 18 32  2  0  0  0
 19 28  1  0  0  0
 19 33  2  0  0  0
 20 21  1  0  0  0
 20 29  1  0  0  0
 20 34  2  0  0  0
 21 27  1  0  0  0
 21 46  1  0  0  0
 21 47  1  0  0  0
 22 23  1  0  0  0
 22 28  1  0  0  0
 22 48  1  0  0  0
 22 49  1  0  0  0
 23 29  1  0  0  0
 23 50  1  0  0  0
 24 25  1  0  0  0
 25 51  1  0  0  0
 26 27  1  0  0  0
 26 52  1  0  0  0
 28 53  1  0  0  0
 29 54  1  0  0  0
M  END
> <s_i_glide_gridfile>
Cov2_glide-grid_1

> <i_i_glide_lignum>
10

> <i_i_glide_rotatable_bonds>
9

> <r_i_docking_score>
-8.19801

> <r_i_glide_ligand_efficiency>
-0.241118

> <r_i_glide_ligand_efficiency_sa>
-0.781128

> <r_i_glide_ligand_efficiency_ln>
-1.81117

> <r_i_glide_gscore>
-8.19801

> <r_i_glide_lipo>
-3.57527

> <r_i_glide_hbond>
-0.478162

> <r_i_glide_metal>
-0

> <r_i_glide_rewards>
-0.383672

> <r_i_glide_evdw>
-52.1011

> <r_i_glide_ecoul>
-10.9723

> <r_i_glide_erotb>
0.569655

> <r_i_glide_esite>
-0.0796624

> <r_i_glide_emodel>
-91.5226

> <r_i_glide_energy>
-63.0733

> <r_i_glide_einternal>
7.13758

> <i_i_glide_confnum>
5

> <i_i_glide_posenum>
34

> <r_i_glide_eff_state_penalty>
0

$$$$
21
                    3D
 Structure written by MMmdl.
 51 53  0  0  1  0            999 V2000
  -23.5137   16.9716  -31.6453 C   0  0  0  0  0  0
  -23.5293   17.9821  -30.6870 C   0  0  0  0  0  0
  -22.8084   15.7926  -31.4177 C   0  0  0  0  0  0
  -22.8408   17.8048  -29.4874 C   0  0  0  0  0  0
  -22.1173   15.6175  -30.2229 C   0  0  0  0  0  0
  -22.1359   16.6182  -29.2444 C   0  0  0  0  0  0
  -19.3398   22.1986  -25.5736 C   0  0  0  0  0  0
  -18.0020   23.8213  -24.7183 C   0  0  0  0  0  0
  -18.3563   21.6084  -26.3084 C   0  0  0  0  0  0
  -17.0259   22.2191  -26.2355 C   0  0  0  0  0  0
  -21.2905   15.8956  -21.4747 C   0  0  0  0  0  0
  -20.6447   13.8236  -22.1068 C   0  0  0  0  0  0
  -18.5628   20.4049  -27.1195 C   0  0  0  0  0  0
  -19.6033   19.5577  -26.9480 C   0  0  0  0  0  0
  -19.8400   18.4011  -27.7767 C   0  0  0  0  0  0
  -20.4102   14.3821  -25.6450 C   0  0  0  0  0  0
  -20.5476   16.0361  -22.7755 C   0  0  0  0  0  0
  -19.6254   14.1842  -24.3292 C   0  0  0  0  0  0
  -22.1920   15.5662  -26.9242 C   0  0  0  0  0  0
  -21.3560   16.4008  -27.9387 C   0  0  2  0  0  0
  -19.1770   23.3111  -24.8016 N   0  0  0  0  0  0
  -16.9584   23.2950  -25.4224 N   0  0  0  0  0  0
  -21.2985   14.5849  -21.2110 N   0  0  0  0  0  0
  -20.3139   14.6549  -23.1150 N   0  0  0  0  0  0
  -20.8421   17.6332  -27.3155 N   0  0  0  0  0  0
  -21.4753   15.2027  -25.6921 N   0  0  0  0  0  0
  -16.0107   21.8231  -26.8016 O   0  0  0  0  0  0
  -21.8005   16.7980  -20.8167 O   0  0  0  0  0  0
  -20.4119   12.6214  -22.0022 O   0  0  0  0  0  0
  -19.2099   18.1499  -28.8013 O   0  0  0  0  0  0
  -20.0105   13.7917  -26.6461 O   0  0  0  0  0  0
  -24.0426   17.1044  -32.5777 H   0  0  0  0  0  0
  -24.0721   18.8961  -30.8725 H   0  0  0  0  0  0
  -22.7798   15.0211  -32.1711 H   0  0  0  0  0  0
  -22.8655   18.5931  -28.7502 H   0  0  0  0  0  0
  -21.5585   14.7076  -30.0641 H   0  0  0  0  0  0
  -20.3433   21.8058  -25.5836 H   0  0  0  0  0  0
  -17.7982   24.6837  -24.0917 H   0  0  0  0  0  0
  -17.8464   20.1901  -27.9093 H   0  0  0  0  0  0
  -20.3226   19.7220  -26.1572 H   0  0  0  0  0  0
  -19.6111   16.5856  -22.6758 H   0  0  0  0  0  0
  -21.1580   16.5453  -23.5229 H   0  0  0  0  0  0
  -19.4225   13.1142  -24.2499 H   0  0  0  0  0  0
  -18.6597   14.6827  -24.4126 H   0  0  0  0  0  0
  -23.0783   16.1388  -26.6410 H   0  0  0  0  0  0
  -22.5661   14.6558  -27.3995 H   0  0  0  0  0  0
  -20.4788   15.8021  -28.2026 H   0  0  0  0  0  0
  -16.0423   23.7004  -25.3119 H   0  0  0  0  0  0
  -21.7552   14.1918  -20.4035 H   0  0  0  0  0  0
  -21.2844   17.9017  -26.4479 H   0  0  0  0  0  0
  -21.7977   15.6260  -24.8375 H   0  0  0  0  0  0
  1  2  1  0  0  0
  1  3  2  0  0  0
  1 32  1  0  0  0
  2  4  2  0  0  0
  2 33  1  0  0  0
  3  5  1  0  0  0
  3 34  1  0  0  0
  4  6  1  0  0  0
  4 35  1  0  0  0
  5  6  2  0  0  0
  5 36  1  0  0  0
  6 20  1  0  0  0
  7  9  2  0  0  0
  7 21  1  0  0  0
  7 37  1  0  0  0
  8 21  2  0  0  0
  8 22  1  0  0  0
  8 38  1  0  0  0
  9 10  1  0  0  0
  9 13  1  0  0  0
 10 22  1  0  0  0
 10 27  2  0  0  0
 11 17  1  0  0  0
 11 23  1  0  0  0
 11 28  2  0  0  0
 12 23  1  0  0  0
 12 24  1  0  0  0
 12 29  2  0  0  0
 13 14  2  0  0  0
 13 39  1  0  0  0
 14 15  1  0  0  0
 14 40  1  0  0  0
 15 25  1  0  0  0
 15 30  2  0  0  0
 16 18  1  0  0  0
 16 26  1  0  0  0
 16 31  2  0  0  0
 17 24  1  0  0  0
 17 41  1  0  0  0
 17 42  1  0  0  0
 18 24  1  0  0  0
 18 43  1  0  0  0
 18 44  1  0  0  0
 19 20  1  0  0  0
 19 26  1  0  0  0
 19 45  1  0  0  0
 19 46  1  0  0  0
 20 25  1  0  0  0
 20 47  1  0  0  0
 22 48  1  0  0  0
 23 49  1  0  0  0
 25 50  1  0  0  0
 26 51  1  0  0  0
M  END
> <s_i_glide_gridfile>
Cov2_glide-grid_1

> <i_i_glide_lignum>
5

> <i_i_glide_rotatable_bonds>
10

> <r_i_docking_score>
-8.19705

> <r_i_glide_ligand_efficiency>
-0.264421

> <r_i_glide_ligand_efficiency_sa>
-0.830647

> <r_i_glide_ligand_efficiency_ln>
-1.84869

> <r_i_glide_gscore>
-8.19705

> <r_i_glide_lipo>
-2.09379

> <r_i_glide_hbond>
-0.765785

> <r_i_glide_metal>
-0

> <r_i_glide_rewards>
-1.93963

> <r_i_glide_evdw>
-49.2036

> <r_i_glide_ecoul>
-10.7538

> <r_i_glide_erotb>
0.770562

> <r_i_glide_esite>
-0.0951609

> <r_i_glide_emodel>
-89.5931

> <r_i_glide_energy>
-59.9574

> <r_i_glide_einternal>
3.52507

> <i_i_glide_confnum>
177

> <i_i_glide_posenum>
12

> <r_i_glide_eff_state_penalty>
0

$$$$
93
                    3D
 Structure written by MMmdl.
 57 60  0  0  1  0            999 V2000
  -20.8106   12.7686  -29.6606 C   0  0  0  0  0  0
  -22.1313   12.8192  -29.2287 C   0  0  0  0  0  0
  -20.0021   13.9051  -29.6013 C   0  0  0  0  0  0
  -22.6349   14.0019  -28.7007 C   0  0  0  0  0  0
  -20.5336   15.1082  -29.1398 C   0  0  0  0  0  0
  -21.8445   15.1487  -28.6562 C   0  0  0  0  0  0
  -19.5051   22.8487  -25.0458 C   0  0  0  0  0  0
  -22.5107   15.8538  -21.3472 C   0  0  0  0  0  0
  -18.4596   22.3429  -25.7539 C   0  0  0  0  0  0
  -21.6152   15.0853  -22.0130 C   0  0  0  0  0  0
  -17.1694   23.0199  -25.6029 C   0  0  0  0  0  0
  -21.2151   13.8210  -21.3993 C   0  0  0  0  0  0
  -18.3075   24.5405  -24.1120 C   0  0  0  0  0  0
  -22.8082   14.2969  -19.5673 C   0  0  0  0  0  0
  -18.5366   21.1818  -26.6387 C   0  0  0  0  0  0
  -21.1164   15.3775  -23.3438 C   0  0  0  0  0  0
  -19.6120   20.3744  -26.7827 C   0  0  0  0  0  0
  -21.8957   15.8217  -24.3515 C   0  0  0  0  0  0
  -19.6017   19.2617  -27.6980 C   0  0  0  0  0  0
  -21.3693   16.0021  -25.6782 C   0  0  0  0  0  0
  -19.8575   16.4421  -28.9390 C   0  0  0  0  0  0
  -22.1609   16.4966  -28.0391 C   0  0  2  0  0  0
  -21.0233   17.3929  -28.5903 C   0  0  1  0  0  0
  -18.1574   25.7229  -23.1852 C   0  0  0  0  0  0
  -19.4367   23.9433  -24.2327 N   0  0  0  0  0  0
  -23.0746   15.4987  -20.1548 N   0  0  0  0  0  0
  -17.2107   24.1048  -24.8017 N   0  0  0  0  0  0
  -21.8659   13.5595  -20.2286 N   0  0  0  0  0  0
  -22.3054   16.3763  -26.5715 N   0  0  0  0  0  0
  -20.7343   18.5431  -27.7181 N   0  0  0  0  0  0
  -16.1121   22.6628  -26.1247 O   0  0  0  0  0  0
  -20.4069   13.0219  -21.8777 O   0  0  0  0  0  0
  -23.3653   13.9126  -18.5452 O   0  0  0  0  0  0
  -18.6335   18.9875  -28.3951 O   0  0  0  0  0  0
  -20.1938   15.7821  -25.9654 O   0  0  0  0  0  0
  -20.4108   11.8405  -30.0366 H   0  0  0  0  0  0
  -22.7483   11.9324  -29.2633 H   0  0  0  0  0  0
  -18.9747   13.8468  -29.9334 H   0  0  0  0  0  0
  -23.6248   14.0205  -28.2940 H   0  0  0  0  0  0
  -20.4808   22.3949  -25.1127 H   0  0  0  0  0  0
  -22.9055   16.7872  -21.7178 H   0  0  0  0  0  0
  -17.6561   20.9552  -27.2320 H   0  0  0  0  0  0
  -20.0612   15.2047  -23.5206 H   0  0  0  0  0  0
  -20.5235   20.5284  -26.2255 H   0  0  0  0  0  0
  -22.9462   16.0224  -24.2012 H   0  0  0  0  0  0
  -19.3025   16.7927  -29.8096 H   0  0  0  0  0  0
  -19.1472   16.3687  -28.1181 H   0  0  0  0  0  0
  -23.1042   16.8660  -28.4434 H   0  0  0  0  0  0
  -21.3847   17.7789  -29.5474 H   0  0  0  0  0  0
  -18.8561   26.5164  -23.4521 H   0  0  0  0  0  0
  -18.3627   25.4215  -22.1572 H   0  0  0  0  0  0
  -17.1491   26.1311  -23.2048 H   0  0  0  0  0  0
  -23.7732   16.0659  -19.6950 H   0  0  0  0  0  0
  -16.3156   24.5368  -24.6179 H   0  0  0  0  0  0
  -21.6315   12.6683  -19.8141 H   0  0  0  0  0  0
  -23.2335   16.5432  -26.2142 H   0  0  0  0  0  0
  -21.5045   18.8698  -27.1581 H   0  0  0  0  0  0
  1  2  1  0  0  0
  1  3  2  0  0  0
  1 36  1  0  0  0
  2  4  2  0  0  0
  2 37  1  0  0  0
  3  5  1  0  0  0
  3 38  1  0  0  0
  4  6  1  0  0  0
  4 39  1  0  0  0
  5  6  2  0  0  0
  5 21  1  0  0  0
  6 22  1  0  0  0
  7  9  2  0  0  0
  7 25  1  0  0  0
  7 40  1  0  0  0
  8 10  2  0  0  0
  8 26  1  0  0  0
  8 41  1  0  0  0
  9 11  1  0  0  0
  9 15  1  0  0  0
 10 12  1  0  0  0
 10 16  1  0  0  0
 11 27  1  0  0  0
 11 31  2  0  0  0
 12 28  1  0  0  0
 12 32  2  0  0  0
 13 24  1  0  0  0
 13 25  2  0  0  0
 13 27  1  0  0  0
 14 26  1  0  0  0
 14 28  1  0  0  0
 14 33  2  0  0  0
 15 17  2  0  0  0
 15 42  1  0  0  0
 16 18  2  0  0  0
 16 43  1  0  0  0
 17 19  1  0  0  0
 17 44  1  0  0  0
 18 20  1  0  0  0
 18 45  1  0  0  0
 19 30  1  0  0  0
 19 34  2  0  0  0
 20 29  1  0  0  0
 20 35  2  0  0  0
 21 23  1  0  0  0
 21 46  1  0  0  0
 21 47  1  0  0  0
 22 23  1  0  0  0
 22 29  1  0  0  0
 22 48  1  0  0  0
 23 30  1  0  0  0
 23 49  1  0  0  0
 24 50  1  0  0  0
 24 51  1  0  0  0
 24 52  1  0  0  0
 26 53  1  0  0  0
 27 54  1  0  0  0
 28 55  1  0  0  0
 29 56  1  0  0  0
 30 57  1  0  0  0
M  END
> <s_i_glide_gridfile>
Cov2_glide-grid_1

> <i_i_glide_lignum>
96

> <i_i_glide_rotatable_bonds>
8

> <r_i_docking_score>
-8.19449

> <r_i_glide_ligand_efficiency>
-0.234128

> <r_i_glide_ligand_efficiency_sa>
-0.765849

> <r_i_glide_ligand_efficiency_ln>
-1.79887

> <r_i_glide_gscore>
-8.19449

> <r_i_glide_lipo>
-3.16558

> <r_i_glide_hbond>
-0.836634

> <r_i_glide_metal>
-0

> <r_i_glide_rewards>
-0.757177

> <r_i_glide_evdw>
-50.8024

> <r_i_glide_ecoul>
-8.95206

> <r_i_glide_erotb>
0.629202

> <r_i_glide_esite>
-0.181369

> <r_i_glide_emodel>
-84.7945

> <r_i_glide_energy>
-59.7545

> <r_i_glide_einternal>
7.50526

> <i_i_glide_confnum>
12

> <i_i_glide_posenum>
300

> <r_i_glide_eff_state_penalty>
0

$$$$
25
                    3D
 Structure written by MMmdl.
 53 55  0  0  1  0            999 V2000
  -26.5587   19.0326  -31.4781 C   0  0  0  0  0  0
  -26.2620   18.0468  -32.4137 C   0  0  0  0  0  0
  -25.6153   19.4095  -30.5255 C   0  0  0  0  0  0
  -25.0106   17.4360  -32.4019 C   0  0  0  0  0  0
  -24.3686   18.7883  -30.5056 C   0  0  0  0  0  0
  -24.0543   17.7931  -31.4436 C   0  0  0  0  0  0
  -19.0263   20.2749  -27.1213 C   0  0  0  0  0  0
  -20.2620   14.2197  -25.4283 C   0  0  0  0  0  0
  -17.6731   21.7372  -26.0193 C   0  0  0  0  0  0
  -18.8712   20.8666  -28.3377 C   0  0  0  0  0  0
  -21.4256   14.8834  -25.6286 C   0  0  0  0  0  0
  -17.9426   21.9970  -28.3987 C   0  0  0  0  0  0
  -22.0022   15.5715  -24.4682 C   0  0  0  0  0  0
  -20.1221   14.7120  -23.1054 C   0  0  0  0  0  0
  -19.6107   20.4698  -29.5406 C   0  0  0  0  0  0
  -22.0847   14.9600  -26.9302 C   0  0  0  0  0  0
  -20.2257   19.2765  -29.6881 C   0  0  0  0  0  0
  -22.0358   13.9672  -27.8528 C   0  0  0  0  0  0
  -21.0512   18.9365  -30.8228 C   0  0  0  0  0  0
  -22.5481   14.0371  -29.2035 C   0  0  0  0  0  0
  -22.7953   15.5812  -31.1491 C   0  0  0  0  0  0
  -22.6783   17.1000  -31.4849 C   0  0  2  0  0  0
  -18.4089   20.6826  -25.9753 N   0  0  0  0  0  0
  -19.6110   14.1485  -24.2324 N   0  0  0  0  0  0
  -17.4372   22.3669  -27.2015 N   0  0  0  0  0  0
  -21.2855   15.4031  -23.3149 N   0  0  0  0  0  0
  -22.6437   15.2737  -29.7223 N   0  0  0  0  0  0
  -21.6123   17.7261  -30.6789 N   0  0  0  0  0  0
  -17.6133   22.6209  -29.4021 O   0  0  0  0  0  0
  -23.0273   16.2494  -24.4837 O   0  0  0  0  0  0
  -19.6035   14.5732  -22.0022 O   0  0  0  0  0  0
  -21.2828   19.6987  -31.7631 O   0  0  0  0  0  0
  -22.7741   13.0193  -29.8551 O   0  0  0  0  0  0
  -27.5268   19.5113  -31.4935 H   0  0  0  0  0  0
  -26.9924   17.7637  -33.1588 H   0  0  0  0  0  0
  -25.8547   20.1718  -29.7979 H   0  0  0  0  0  0
  -24.7898   16.6787  -33.1423 H   0  0  0  0  0  0
  -23.6573   19.0863  -29.7504 H   0  0  0  0  0  0
  -19.7050   19.4443  -26.9985 H   0  0  0  0  0  0
  -19.7173   13.7012  -26.2040 H   0  0  0  0  0  0
  -17.2104   22.1560  -25.1301 H   0  0  0  0  0  0
  -19.6896   21.1870  -30.3498 H   0  0  0  0  0  0
  -22.5984   15.8848  -27.1663 H   0  0  0  0  0  0
  -20.1439   18.5217  -28.9210 H   0  0  0  0  0  0
  -21.5672   13.0214  -27.6149 H   0  0  0  0  0  0
  -23.7342   15.1635  -31.5175 H   0  0  0  0  0  0
  -22.0120   15.0451  -31.6844 H   0  0  0  0  0  0
  -22.3437   17.1677  -32.5245 H   0  0  0  0  0  0
  -18.7019   13.7167  -24.1467 H   0  0  0  0  0  0
  -16.8578   23.1906  -27.2307 H   0  0  0  0  0  0
  -21.6711   15.8524  -22.4979 H   0  0  0  0  0  0
  -22.5868   16.0631  -29.0998 H   0  0  0  0  0  0
  -21.2065   17.1222  -29.9804 H   0  0  0  0  0  0
  1  2  1  0  0  0
  1  3  2  0  0  0
  1 34  1  0  0  0
  2  4  2  0  0  0
  2 35  1  0  0  0
  3  5  1  0  0  0
  3 36  1  0  0  0
  4  6  1  0  0  0
  4 37  1  0  0  0
  5  6  2  0  0  0
  5 38  1  0  0  0
  6 22  1  0  0  0
  7 10  2  0  0  0
  7 23  1  0  0  0
  7 39  1  0  0  0
  8 11  2  0  0  0
  8 24  1  0  0  0
  8 40  1  0  0  0
  9 23  2  0  0  0
  9 25  1  0  0  0
  9 41  1  0  0  0
 10 12  1  0  0  0
 10 15  1  0  0  0
 11 13  1  0  0  0
 11 16  1  0  0  0
 12 25  1  0  0  0
 12 29  2  0  0  0
 13 26  1  0  0  0
 13 30  2  0  0  0
 14 24  1  0  0  0
 14 26  1  0  0  0
 14 31  2  0  0  0
 15 17  2  0  0  0
 15 42  1  0  0  0
 16 18  2  0  0  0
 16 43  1  0  0  0
 17 19  1  0  0  0
 17 44  1  0  0  0
 18 20  1  0  0  0
 18 45  1  0  0  0
 19 28  1  0  0  0
 19 32  2  0  0  0
 20 27  1  0  0  0
 20 33  2  0  0  0
 21 22  1  0  0  0
 21 27  1  0  0  0
 21 46  1  0  0  0
 21 47  1  0  0  0
 22 28  1  0  0  0
 22 48  1  0  0  0
 24 49  1  0  0  0
 25 50  1  0  0  0
 26 51  1  0  0  0
 27 52  1  0  0  0
 28 53  1  0  0  0
M  END
> <s_i_glide_gridfile>
Cov2_glide-grid_1

> <i_i_glide_lignum>
35

> <i_i_glide_rotatable_bonds>
10

> <r_i_docking_score>
-8.17794

> <r_i_glide_ligand_efficiency>
-0.247816

> <r_i_glide_ligand_efficiency_sa>
-0.794879

> <r_i_glide_ligand_efficiency_ln>
-1.81873

> <r_i_glide_gscore>
-8.17794

> <r_i_glide_lipo>
-3.02997

> <r_i_glide_hbond>
-0.439832

> <r_i_glide_metal>
-0

> <r_i_glide_rewards>
-1.48262

> <r_i_glide_evdw>
-51.0869

> <r_i_glide_ecoul>
-9.12344

> <r_i_glide_erotb>
0.697342

> <r_i_glide_esite>
0

> <r_i_glide_emodel>
-81.926

> <r_i_glide_energy>
-60.2103

> <r_i_glide_einternal>
14.2098

> <i_i_glide_confnum>
188

> <i_i_glide_posenum>
191

> <r_i_glide_eff_state_penalty>
0

$$$$
19
                    3D
 Structure written by MMmdl.
 60 63  0  0  1  0            999 V2000
  -27.3040   18.7900  -32.2829 C   0  0  0  0  0  0
  -27.1038   19.5081  -31.1095 C   0  0  0  0  0  0
  -26.3028   17.9689  -32.7928 C   0  0  0  0  0  0
  -25.8928   19.4210  -30.4272 C   0  0  0  0  0  0
  -24.0169   17.0382  -32.6145 C   0  0  0  0  0  0
  -22.8084   16.9539  -31.9317 C   0  0  0  0  0  0
  -23.6114   18.4773  -30.2424 C   0  0  0  0  0  0
  -25.0592   17.8572  -32.1223 C   0  0  0  0  0  0
  -24.8503   18.5950  -30.9182 C   0  0  0  0  0  0
  -22.5926   17.6542  -30.7402 C   0  0  0  0  0  0
  -19.5554   22.1865  -25.5082 C   0  0  0  0  0  0
  -20.2428   13.7905  -24.5604 C   0  0  0  0  0  0
  -18.3140   23.8151  -24.5149 C   0  0  0  0  0  0
  -20.0045   14.7350  -22.5124 C   0  0  0  0  0  0
  -18.5185   21.6681  -26.2219 C   0  0  0  0  0  0
  -21.3003   14.5677  -24.9146 C   0  0  0  0  0  0
  -17.2103   22.3067  -26.0431 C   0  0  0  0  0  0
  -21.7949   15.5374  -23.9302 C   0  0  0  0  0  0
  -18.6282   20.5200  -27.1274 C   0  0  0  0  0  0
  -19.7853   19.9456  -27.5347 C   0  0  0  0  0  0
  -19.7979   18.8059  -28.4198 C   0  0  0  0  0  0
  -21.1130   14.8039  -27.4809 C   0  0  0  0  0  0
  -21.4646   16.5777  -21.7617 C   0  0  0  0  0  0
  -22.0099   14.4518  -26.2805 C   0  0  0  0  0  0
  -20.9048   16.0876  -29.5997 C   0  0  0  0  0  0
  -21.2199   17.5446  -30.0542 C   0  0  2  0  0  0
  -19.4609   23.2550  -24.6650 N   0  0  0  0  0  0
  -19.6225   13.8362  -23.3468 N   0  0  0  0  0  0
  -17.2234   23.3652  -25.2017 N   0  0  0  0  0  0
  -21.0571   15.5843  -22.7677 N   0  0  0  0  0  0
  -20.9744   18.5774  -29.0257 N   0  0  0  0  0  0
  -21.6093   15.6686  -28.3819 N   0  0  0  0  0  0
  -16.1574   21.9474  -26.5704 O   0  0  0  0  0  0
  -22.8023   16.2244  -24.1250 O   0  0  0  0  0  0
  -18.8108   18.1055  -28.6141 O   0  0  0  0  0  0
  -20.0108   14.2691  -27.6028 O   0  0  0  0  0  0
  -28.2460   18.8720  -32.8044 H   0  0  0  0  0  0
  -27.8930   20.1371  -30.7252 H   0  0  0  0  0  0
  -26.4684   17.4212  -33.7092 H   0  0  0  0  0  0
  -25.7467   19.9788  -29.5134 H   0  0  0  0  0  0
  -24.1565   16.4855  -33.5322 H   0  0  0  0  0  0
  -22.0274   16.3328  -32.3489 H   0  0  0  0  0  0
  -23.4813   19.0357  -29.3276 H   0  0  0  0  0  0
  -20.5413   21.7521  -25.5847 H   0  0  0  0  0  0
  -19.8572   13.0579  -25.2549 H   0  0  0  0  0  0
  -18.1718   24.6537  -23.8368 H   0  0  0  0  0  0
  -19.5002   14.8305  -21.5557 H   0  0  0  0  0  0
  -17.7000   20.0951  -27.4991 H   0  0  0  0  0  0
  -20.7495   20.3204  -27.2273 H   0  0  0  0  0  0
  -20.8225   16.5709  -20.8802 H   0  0  0  0  0  0
  -21.4269   17.5855  -22.1800 H   0  0  0  0  0  0
  -22.4857   16.3927  -21.4243 H   0  0  0  0  0  0
  -22.9255   15.0457  -26.3179 H   0  0  0  0  0  0
  -22.3314   13.4210  -26.4224 H   0  0  0  0  0  0
  -21.1469   15.3782  -30.3922 H   0  0  0  0  0  0
  -19.8253   15.9867  -29.4737 H   0  0  0  0  0  0
  -20.5118   17.7826  -30.8528 H   0  0  0  0  0  0
  -16.3254   23.7862  -25.0163 H   0  0  0  0  0  0
  -21.7253   19.2289  -28.8632 H   0  0  0  0  0  0
  -22.5365   16.0417  -28.2439 H   0  0  0  0  0  0
  1  2  1  0  0  0
  1  3  2  0  0  0
  1 37  1  0  0  0
  2  4  2  0  0  0
  2 38  1  0  0  0
  3  8  1  0  0  0
  3 39  1  0  0  0
  4  9  1  0  0  0
  4 40  1  0  0  0
  5  6  2  0  0  0
  5  8  1  0  0  0
  5 41  1  0  0  0
  6 10  1  0  0  0
  6 42  1  0  0  0
  7  9  1  0  0  0
  7 10  2  0  0  0
  7 43  1  0  0  0
  8  9  2  0  0  0
 10 26  1  0  0  0
 11 15  2  0  0  0
 11 27  1  0  0  0
 11 44  1  0  0  0
 12 16  2  0  0  0
 12 28  1  0  0  0
 12 45  1  0  0  0
 13 27  2  0  0  0
 13 29  1  0  0  0
 13 46  1  0  0  0
 14 28  2  0  0  0
 14 30  1  0  0  0
 14 47  1  0  0  0
 15 17  1  0  0  0
 15 19  1  0  0  0
 16 18  1  0  0  0
 16 24  1  0  0  0
 17 29  1  0  0  0
 17 33  2  0  0  0
 18 30  1  0  0  0
 18 34  2  0  0  0
 19 20  2  0  0  0
 19 48  1  0  0  0
 20 21  1  0  0  0
 20 49  1  0  0  0
 21 31  1  0  0  0
 21 35  2  0  0  0
 22 24  1  0  0  0
 22 32  1  0  0  0
 22 36  2  0  0  0
 23 30  1  0  0  0
 23 50  1  0  0  0
 23 51  1  0  0  0
 23 52  1  0  0  0
 24 53  1  0  0  0
 24 54  1  0  0  0
 25 26  1  0  0  0
 25 32  1  0  0  0
 25 55  1  0  0  0
 25 56  1  0  0  0
 26 31  1  0  0  0
 26 57  1  0  0  0
 29 58  1  0  0  0
 31 59  1  0  0  0
 32 60  1  0  0  0
M  END
> <s_i_glide_gridfile>
Cov2_glide-grid_1

> <i_i_glide_lignum>
48

> <i_i_glide_rotatable_bonds>
10

> <r_i_docking_score>
-8.1529

> <r_i_glide_ligand_efficiency>
-0.226469

> <r_i_glide_ligand_efficiency_sa>
-0.747785

> <r_i_glide_ligand_efficiency_ln>
-1.77874

> <r_i_glide_gscore>
-8.1529

> <r_i_glide_lipo>
-3.04649

> <r_i_glide_hbond>
-0.36754

> <r_i_glide_metal>
-0

> <r_i_glide_rewards>
-1.01006

> <r_i_glide_evdw>
-56.3641

> <r_i_glide_ecoul>
-9.89128

> <r_i_glide_erotb>
0.692097

> <r_i_glide_esite>
-0.119006

> <r_i_glide_emodel>
-95.127

> <r_i_glide_energy>
-66.2554

> <r_i_glide_einternal>
7.58918

> <i_i_glide_confnum>
134

> <i_i_glide_posenum>
73

> <r_i_glide_eff_state_penalty>
0

$$$$
61
                    3D
 Structure written by MMmdl.
 58 61  0  0  1  0            999 V2000
  -25.5926   24.9322  -30.3296 C   0  0  0  0  0  0
  -25.4312   24.0323  -29.2811 C   0  0  0  0  0  0
  -24.7596   24.8778  -31.4448 C   0  0  0  0  0  0
  -24.4334   23.0615  -29.3298 C   0  0  0  0  0  0
  -22.8681   23.8181  -32.6403 C   0  0  0  0  0  0
  -21.8630   22.8564  -32.6788 C   0  0  0  0  0  0
  -22.5391   22.0115  -30.5242 C   0  0  0  0  0  0
  -23.7334   23.9033  -31.5246 C   0  0  0  0  0  0
  -23.5673   22.9809  -30.4482 C   0  0  0  0  0  0
  -21.6807   21.9514  -31.6285 C   0  0  0  0  0  0
  -17.6116   22.6344  -25.1494 C   0  0  0  0  0  0
  -18.8840   22.2072  -25.0001 C   0  0  0  0  0  0
  -23.1063   14.2038  -30.6934 C   0  0  0  0  0  0
  -22.2330   12.3050  -29.8016 C   0  0  0  0  0  0
  -22.0404   14.9801  -30.3629 C   0  0  0  0  0  0
  -16.7743   22.2368  -26.2568 C   0  0  0  0  0  0
  -19.5513   21.3438  -25.9542 C   0  0  0  0  0  0
  -20.9646   14.3442  -29.6014 C   0  0  0  0  0  0
  -21.8706   16.3675  -30.7840 C   0  0  0  0  0  0
  -22.7308   17.0590  -31.5671 C   0  0  0  0  0  0
  -22.4754   18.4062  -32.0019 C   0  0  0  0  0  0
  -19.6105   21.0041  -29.3368 C   0  0  0  0  0  0
  -19.2649   20.1281  -28.1170 C   0  0  0  0  0  0
  -20.6271   19.9044  -32.8122 C   0  0  0  0  0  0
  -20.4951   20.9698  -31.6861 C   0  0  2  0  0  0
  -23.2101   12.8746  -30.4014 N   0  0  0  0  0  0
  -21.1465   13.0216  -29.3942 N   0  0  0  0  0  0
  -17.3899   21.3943  -27.1238 N   0  0  0  0  0  0
  -18.7516   20.9543  -27.0044 N   0  0  0  0  0  0
  -21.2124   18.6218  -32.4077 N   0  0  0  0  0  0
  -20.0854   20.3558  -30.4093 N   0  0  0  0  0  0
  -15.6109   22.5951  -26.4017 O   0  0  0  0  0  0
  -20.7330   21.0207  -25.8246 O   0  0  0  0  0  0
  -19.9522   14.8933  -29.1785 O   0  0  0  0  0  0
  -23.3507   19.2672  -32.0007 O   0  0  0  0  0  0
  -19.4401   22.2209  -29.3350 O   0  0  0  0  0  0
  -26.3743   25.6766  -30.2772 H   0  0  0  0  0  0
  -26.0872   24.0841  -28.4241 H   0  0  0  0  0  0
  -24.8931   25.5796  -32.2563 H   0  0  0  0  0  0
  -24.3149   22.3654  -28.5115 H   0  0  0  0  0  0
  -22.9870   24.5100  -33.4622 H   0  0  0  0  0  0
  -21.2080   22.8302  -33.5384 H   0  0  0  0  0  0
  -22.4302   21.3137  -29.7074 H   0  0  0  0  0  0
  -17.1710   23.2825  -24.4019 H   0  0  0  0  0  0
  -19.4463   22.5292  -24.1353 H   0  0  0  0  0  0
  -23.9308   14.6114  -31.2578 H   0  0  0  0  0  0
  -22.2414   11.2370  -29.6015 H   0  0  0  0  0  0
  -20.9692   16.8736  -30.4562 H   0  0  0  0  0  0
  -23.6640   16.6489  -31.9209 H   0  0  0  0  0  0
  -20.1563   19.5653  -27.8311 H   0  0  0  0  0  0
  -18.5185   19.3841  -28.4008 H   0  0  0  0  0  0
  -19.6326   19.6781  -33.1942 H   0  0  0  0  0  0
  -21.1704   20.3064  -33.6677 H   0  0  0  0  0  0
  -19.6471   21.5940  -31.9814 H   0  0  0  0  0  0
  -20.3979   12.5729  -28.8980 H   0  0  0  0  0  0
  -16.9556   21.0694  -27.9741 H   0  0  0  0  0  0
  -20.6177   17.8017  -32.4763 H   0  0  0  0  0  0
  -20.2213   19.3562  -30.3496 H   0  0  0  0  0  0
  1  2  1  0  0  0
  1  3  2  0  0  0
  1 37  1  0  0  0
  2  4  2  0  0  0
  2 38  1  0  0  0
  3  8  1  0  0  0
  3 39  1  0  0  0
  4  9  1  0  0  0
  4 40  1  0  0  0
  5  6  2  0  0  0
  5  8  1  0  0  0
  5 41  1  0  0  0
  6 10  1  0  0  0
  6 42  1  0  0  0
  7  9  1  0  0  0
  7 10  2  0  0  0
  7 43  1  0  0  0
  8  9  2  0  0  0
 10 25  1  0  0  0
 11 12  2  0  0  0
 11 16  1  0  0  0
 11 44  1  0  0  0
 12 17  1  0  0  0
 12 45  1  0  0  0
 13 15  2  0  0  0
 13 26  1  0  0  0
 13 46  1  0  0  0
 14 26  2  0  0  0
 14 27  1  0  0  0
 14 47  1  0  0  0
 15 18  1  0  0  0
 15 19  1  0  0  0
 16 28  1  0  0  0
 16 32  2  0  0  0
 17 29  1  0  0  0
 17 33  2  0  0  0
 18 27  1  0  0  0
 18 34  2  0  0  0
 19 20  2  0  0  0
 19 48  1  0  0  0
 20 21  1  0  0  0
 20 49  1  0  0  0
 21 30  1  0  0  0
 21 35  2  0  0  0
 22 23  1  0  0  0
 22 31  1  0  0  0
 22 36  2  0  0  0
 23 29  1  0  0  0
 23 50  1  0  0  0
 23 51  1  0  0  0
 24 25  1  0  0  0
 24 30  1  0  0  0
 24 52  1  0  0  0
 24 53  1  0  0  0
 25 31  1  0  0  0
 25 54  1  0  0  0
 27 55  1  0  0  0
 28 29  1  0  0  0
 28 56  1  0  0  0
 30 57  1  0  0  0
 31 58  1  0  0  0
M  END
> <s_i_glide_gridfile>
Cov2_glide-grid_1

> <i_i_glide_lignum>
77

> <i_i_glide_rotatable_bonds>
10

> <r_i_docking_score>
-8.15147

> <r_i_glide_ligand_efficiency>
-0.22643

> <r_i_glide_ligand_efficiency_sa>
-0.747654

> <r_i_glide_ligand_efficiency_ln>
-1.77843

> <r_i_glide_gscore>
-8.15147

> <r_i_glide_lipo>
-1.94489

> <r_i_glide_hbond>
-1.28

> <r_i_glide_metal>
-0

> <r_i_glide_rewards>
-1.11336

> <r_i_glide_evdw>
-50.6982

> <r_i_glide_ecoul>
-12.5138

> <r_i_glide_erotb>
0.6011

> <r_i_glide_esite>
-0.00234173

> <r_i_glide_emodel>
-92.8709

> <r_i_glide_energy>
-63.212

> <r_i_glide_einternal>
4.44287

> <i_i_glide_confnum>
87

> <i_i_glide_posenum>
40

> <r_i_glide_eff_state_penalty>
0

$$$$
90
                    3D
 Structure written by MMmdl.
 55 58  0  0  1  0            999 V2000
  -22.5310   13.1147  -30.1958 C   0  0  0  0  0  0
  -23.2074   14.3097  -30.4115 C   0  0  0  0  0  0
  -21.5525   13.0204  -29.2109 C   0  0  0  0  0  0
  -22.9195   15.4299  -29.6340 C   0  0  0  0  0  0
  -20.2764   14.0630  -27.3704 C   0  0  0  0  0  0
  -20.0111   15.1757  -26.5754 C   0  0  0  0  0  0
  -21.6474   16.4762  -27.7827 C   0  0  0  0  0  0
  -21.2488   14.1346  -28.3935 C   0  0  0  0  0  0
  -21.9448   15.3616  -28.6068 C   0  0  0  0  0  0
  -20.6844   16.3874  -26.7733 C   0  0  0  0  0  0
  -23.3648   14.6054  -19.8903 C   0  0  0  0  0  0
  -22.3915   13.8210  -20.3984 C   0  0  0  0  0  0
  -19.4752   22.4750  -24.8360 C   0  0  0  0  0  0
  -18.3940   22.0688  -25.5562 C   0  0  0  0  0  0
  -23.4265   16.0318  -20.1216 C   0  0  0  0  0  0
  -21.3066   14.3170  -21.2211 C   0  0  0  0  0  0
  -17.2109   22.9471  -25.5122 C   0  0  0  0  0  0
  -18.5048   24.5307  -24.1207 C   0  0  0  0  0  0
  -18.4197   20.8367  -26.3373 C   0  0  0  0  0  0
  -20.9184   16.6742  -23.6165 C   0  0  0  0  0  0
  -20.3339   16.3864  -22.2192 C   0  0  0  0  0  0
  -19.3606   18.5393  -26.5266 C   0  0  0  0  0  0
  -20.4139   17.6101  -25.8779 C   0  0  2  0  0  0
  -19.5269   23.6344  -24.1131 N   0  0  0  0  0  0
  -17.4013   24.0958  -24.8016 N   0  0  0  0  0  0
  -22.3538   16.5064  -20.8033 N   0  0  0  0  0  0
  -21.3160   15.6867  -21.3670 N   0  0  0  0  0  0
  -19.1654   19.8247  -25.8383 N   0  0  0  0  0  0
  -20.0850   17.2807  -24.4783 N   0  0  0  0  0  0
  -24.3568   16.7491  -19.7659 O   0  0  0  0  0  0
  -20.4850   13.5565  -21.7351 O   0  0  0  0  0  0
  -16.1119   22.7029  -26.0135 O   0  0  0  0  0  0
  -18.5853   25.6477  -23.6152 O   0  0  0  0  0  0
  -17.7992   20.7156  -27.3960 O   0  0  0  0  0  0
  -22.0750   16.3647  -23.9119 O   0  0  0  0  0  0
  -22.7531   12.2502  -30.8020 H   0  0  0  0  0  0
  -23.9481   14.3744  -31.1966 H   0  0  0  0  0  0
  -21.0223   12.0912  -29.0695 H   0  0  0  0  0  0
  -23.4516   16.3553  -29.8054 H   0  0  0  0  0  0
  -19.7458   13.1383  -27.1994 H   0  0  0  0  0  0
  -19.2719   15.0808  -25.7918 H   0  0  0  0  0  0
  -22.1842   17.4001  -27.9452 H   0  0  0  0  0  0
  -24.1455   14.1641  -19.2879 H   0  0  0  0  0  0
  -22.4110   12.7632  -20.1943 H   0  0  0  0  0  0
  -20.4154   21.9444  -24.7648 H   0  0  0  0  0  0
  -19.4139   15.8080  -22.3417 H   0  0  0  0  0  0
  -20.0257   17.3218  -21.7485 H   0  0  0  0  0  0
  -18.4109   18.0131  -26.5853 H   0  0  0  0  0  0
  -19.6588   18.7415  -27.5593 H   0  0  0  0  0  0
  -21.3460   18.1801  -25.8341 H   0  0  0  0  0  0
  -20.3251   23.8893  -23.5478 H   0  0  0  0  0  0
  -16.5934   24.7020  -24.7363 H   0  0  0  0  0  0
  -22.2900   17.4651  -21.1117 H   0  0  0  0  0  0
  -19.6378   19.9543  -24.9537 H   0  0  0  0  0  0
  -19.1711   17.5470  -24.1392 H   0  0  0  0  0  0
  1  2  1  0  0  0
  1  3  2  0  0  0
  1 36  1  0  0  0
  2  4  2  0  0  0
  2 37  1  0  0  0
  3  8  1  0  0  0
  3 38  1  0  0  0
  4  9  1  0  0  0
  4 39  1  0  0  0
  5  6  2  0  0  0
  5  8  1  0  0  0
  5 40  1  0  0  0
  6 10  1  0  0  0
  6 41  1  0  0  0
  7  9  1  0  0  0
  7 10  2  0  0  0
  7 42  1  0  0  0
  8  9  2  0  0  0
 10 23  1  0  0  0
 11 12  2  0  0  0
 11 15  1  0  0  0
 11 43  1  0  0  0
 12 16  1  0  0  0
 12 44  1  0  0  0
 13 14  2  0  0  0
 13 24  1  0  0  0
 13 45  1  0  0  0
 14 17  1  0  0  0
 14 19  1  0  0  0
 15 26  1  0  0  0
 15 30  2  0  0  0
 16 27  1  0  0  0
 16 31  2  0  0  0
 17 25  1  0  0  0
 17 32  2  0  0  0
 18 24  1  0  0  0
 18 25  1  0  0  0
 18 33  2  0  0  0
 19 28  1  0  0  0
 19 34  2  0  0  0
 20 21  1  0  0  0
 20 29  1  0  0  0
 20 35  2  0  0  0
 21 27  1  0  0  0
 21 46  1  0  0  0
 21 47  1  0  0  0
 22 23  1  0  0  0
 22 28  1  0  0  0
 22 48  1  0  0  0
 22 49  1  0  0  0
 23 29  1  0  0  0
 23 50  1  0  0  0
 24 51  1  0  0  0
 25 52  1  0  0  0
 26 27  1  0  0  0
 26 53  1  0  0  0
 28 54  1  0  0  0
 29 55  1  0  0  0
M  END
> <s_i_glide_gridfile>
Cov2_glide-grid_1

> <i_i_glide_lignum>
80

> <i_i_glide_rotatable_bonds>
9

> <r_i_docking_score>
-8.14723

> <r_i_glide_ligand_efficiency>
-0.232778

> <r_i_glide_ligand_efficiency_sa>
-0.761433

> <r_i_glide_ligand_efficiency_ln>
-1.7885

> <r_i_glide_gscore>
-8.14723

> <r_i_glide_lipo>
-3.15629

> <r_i_glide_hbond>
-0.53776

> <r_i_glide_metal>
-0

> <r_i_glide_rewards>
-0.604942

> <r_i_glide_evdw>
-57.8957

> <r_i_glide_ecoul>
-8.33306

> <r_i_glide_erotb>
0.535245

> <r_i_glide_esite>
-0.238737

> <r_i_glide_emodel>
-97.2981

> <r_i_glide_energy>
-66.2288

> <r_i_glide_einternal>
2.35529

> <i_i_glide_confnum>
18

> <i_i_glide_posenum>
354

> <r_i_glide_eff_state_penalty>
0

$$$$
59
                    3D
 Structure written by MMmdl.
 58 62  0  0  1  0            999 V2000
  -22.4084   12.8790  -29.8567 C   0  0  0  0  0  0
  -21.2001   13.0602  -29.1954 C   0  0  0  0  0  0
  -23.0748   13.9694  -30.4042 C   0  0  0  0  0  0
  -20.6409   14.3250  -29.0559 C   0  0  0  0  0  0
  -23.1633   16.4038  -30.8586 C   0  0  0  0  0  0
  -22.5962   17.6679  -30.7229 C   0  0  0  0  0  0
  -24.8578   20.8035  -32.1618 C   0  0  0  0  0  0
  -20.7520   16.7527  -29.4745 C   0  0  0  0  0  0
  -22.5792   23.5668  -33.4363 C   0  0  0  0  0  0
  -24.7079   23.6378  -34.4018 C   0  0  0  0  0  0
  -26.1228   20.7620  -32.7108 C   0  0  0  0  0  0
  -22.5261   15.2736  -30.2965 C   0  0  0  0  0  0
  -21.2941   15.4530  -29.6018 C   0  0  0  0  0  0
  -24.1542   21.8952  -32.7727 C   0  0  0  0  0  0
  -22.8531   22.4327  -32.6598 C   0  0  0  0  0  0
  -21.3974   17.8631  -30.0320 C   0  0  0  0  0  0
  -25.0822   22.5178  -33.6611 C   0  0  0  0  0  0
  -18.4107   23.6124  -24.4146 C   0  0  0  0  0  0
  -17.3294   23.4219  -25.2016 C   0  0  0  0  0  0
  -19.5851   22.7758  -24.4658 C   0  0  0  0  0  0
  -17.2093   22.3258  -26.1415 C   0  0  0  0  0  0
  -21.7773   21.8922  -31.7697 C   0  0  0  0  0  0
  -19.4742   20.5225  -28.1616 C   0  0  0  0  0  0
  -18.4006   20.3329  -27.0705 C   0  0  0  0  0  0
  -20.4003   19.8981  -31.2415 C   0  0  0  0  0  0
  -20.8382   19.2906  -29.8783 C   0  0  2  0  0  0
  -23.4589   24.1504  -34.2859 N   0  0  0  0  0  0
  -26.2579   21.7974  -33.6005 N   0  0  0  0  0  0
  -19.4478   21.7266  -25.3173 N   0  0  0  0  0  0
  -18.3187   21.5087  -26.1801 N   0  0  0  0  0  0
  -21.4695   20.6013  -31.9586 N   0  0  0  0  0  0
  -19.7944   19.4092  -28.8443 N   0  0  0  0  0  0
  -20.6274   22.9816  -23.8527 O   0  0  0  0  0  0
  -16.1822   22.1534  -26.8028 O   0  0  0  0  0  0
  -21.2105   22.6214  -30.9584 O   0  0  0  0  0  0
  -20.0101   21.6115  -28.3667 O   0  0  0  0  0  0
  -22.8266   11.8866  -29.9485 H   0  0  0  0  0  0
  -20.6841   12.2204  -28.7702 H   0  0  0  0  0  0
  -24.0099   13.8272  -30.9233 H   0  0  0  0  0  0
  -19.7043   14.4490  -28.5330 H   0  0  0  0  0  0
  -24.0951   16.2837  -31.3905 H   0  0  0  0  0  0
  -23.1049   18.5084  -31.1609 H   0  0  0  0  0  0
  -24.4934   20.1309  -31.4038 H   0  0  0  0  0  0
  -19.8172   16.8561  -28.9462 H   0  0  0  0  0  0
  -21.6043   24.0359  -33.4032 H   0  0  0  0  0  0
  -25.3800   24.1276  -35.0931 H   0  0  0  0  0  0
  -26.9508   20.0876  -32.5309 H   0  0  0  0  0  0
  -18.4080   24.4182  -23.6948 H   0  0  0  0  0  0
  -16.4778   24.0787  -25.0870 H   0  0  0  0  0  0
  -18.6334   19.4479  -26.4738 H   0  0  0  0  0  0
  -17.4571   20.1259  -27.5758 H   0  0  0  0  0  0
  -19.5552   20.5777  -31.1044 H   0  0  0  0  0  0
  -20.0120   19.1118  -31.8896 H   0  0  0  0  0  0
  -21.6806   19.8731  -29.4931 H   0  0  0  0  0  0
  -27.1120   21.9668  -34.1079 H   0  0  0  0  0  0
  -20.2089   21.0965  -25.5185 H   0  0  0  0  0  0
  -21.9548   20.0913  -32.6826 H   0  0  0  0  0  0
  -19.2880   18.5647  -28.6313 H   0  0  0  0  0  0
  1  2  1  0  0  0
  1  3  2  0  0  0
  1 37  1  0  0  0
  2  4  2  0  0  0
  2 38  1  0  0  0
  3 12  1  0  0  0
  3 39  1  0  0  0
  4 13  1  0  0  0
  4 40  1  0  0  0
  5  6  2  0  0  0
  5 12  1  0  0  0
  5 41  1  0  0  0
  6 16  1  0  0  0
  6 42  1  0  0  0
  7 11  2  0  0  0
  7 14  1  0  0  0
  7 43  1  0  0  0
  8 13  1  0  0  0
  8 16  2  0  0  0
  8 44  1  0  0  0
  9 15  1  0  0  0
  9 27  2  0  0  0
  9 45  1  0  0  0
 10 17  2  0  0  0
 10 27  1  0  0  0
 10 46  1  0  0  0
 11 28  1  0  0  0
 11 47  1  0  0  0
 12 13  2  0  0  0
 14 15  2  0  0  0
 14 17  1  0  0  0
 15 22  1  0  0  0
 16 26  1  0  0  0
 17 28  1  0  0  0
 18 19  2  0  0  0
 18 20  1  0  0  0
 18 48  1  0  0  0
 19 21  1  0  0  0
 19 49  1  0  0  0
 20 29  1  0  0  0
 20 33  2  0  0  0
 21 30  1  0  0  0
 21 34  2  0  0  0
 22 31  1  0  0  0
 22 35  2  0  0  0
 23 24  1  0  0  0
 23 32  1  0  0  0
 23 36  2  0  0  0
 24 30  1  0  0  0
 24 50  1  0  0  0
 24 51  1  0  0  0
 25 26  1  0  0  0
 25 31  1  0  0  0
 25 52  1  0  0  0
 25 53  1  0  0  0
 26 32  1  0  0  0
 26 54  1  0  0  0
 28 55  1  0  0  0
 29 30  1  0  0  0
 29 56  1  0  0  0
 31 57  1  0  0  0
 32 58  1  0  0  0
M  END
> <s_i_glide_gridfile>
Cov2_glide-grid_1

> <i_i_glide_lignum>
60

> <i_i_glide_rotatable_bonds>
9

> <r_i_docking_score>
-8.07964

> <r_i_glide_ligand_efficiency>
-0.224434

> <r_i_glide_ligand_efficiency_sa>
-0.741066

> <r_i_glide_ligand_efficiency_ln>
-1.76276

> <r_i_glide_gscore>
-8.07964

> <r_i_glide_lipo>
-3.23301

> <r_i_glide_hbond>
-0.427899

> <r_i_glide_metal>
-0

> <r_i_glide_rewards>
-0.634575

> <r_i_glide_evdw>
-56.8342

> <r_i_glide_ecoul>
-9.65263

> <r_i_glide_erotb>
0.523045

> <r_i_glide_esite>
-0.0176039

> <r_i_glide_emodel>
-93.2326

> <r_i_glide_energy>
-66.4868

> <r_i_glide_einternal>
11.6515

> <i_i_glide_confnum>
100

> <i_i_glide_posenum>
288

> <r_i_glide_eff_state_penalty>
0

$$$$
32
                    3D
 Structure written by MMmdl.
 55 58  0  0  1  0            999 V2000
  -21.2348   14.8064  -21.4481 C   0  0  0  0  0  0
  -20.2749   13.9934  -22.0412 C   0  0  0  0  0  0
  -21.9457   15.7345  -22.2057 C   0  0  0  0  0  0
  -20.0111   14.0919  -23.4054 C   0  0  0  0  0  0
  -22.4116   16.7846  -24.4024 C   0  0  0  0  0  0
  -22.1529   16.8771  -25.7681 C   0  0  0  0  0  0
  -20.4811   15.1439  -25.5953 C   0  0  0  0  0  0
  -21.7063   15.8563  -23.5978 C   0  0  0  0  0  0
  -20.7229   15.0203  -24.2065 C   0  0  0  0  0  0
  -21.1855   16.0700  -26.3726 C   0  0  0  0  0  0
  -23.9118   18.0421  -30.3440 C   0  0  0  0  0  0
  -24.9110   18.5540  -31.1063 C   0  0  0  0  0  0
  -17.4553   23.3049  -24.9176 C   0  0  0  0  0  0
  -18.7129   23.0234  -24.5110 C   0  0  0  0  0  0
  -23.6228   16.3249  -31.9636 C   0  0  0  0  0  0
  -23.2340   16.8051  -30.7571 C   0  0  0  0  0  0
  -25.4309   17.8654  -32.2835 C   0  0  0  0  0  0
  -16.8146   22.6202  -26.0162 C   0  0  0  0  0  0
  -19.5811   22.0913  -25.2031 C   0  0  0  0  0  0
  -22.2277   16.1111  -29.9683 C   0  0  0  0  0  0
  -19.4213   19.2367  -27.0922 C   0  0  0  0  0  0
  -19.7839   20.7196  -27.2857 C   0  0  0  0  0  0
  -19.6084   16.9835  -28.1687 C   0  0  0  0  0  0
  -20.8796   16.1515  -27.8730 C   0  0  2  0  0  0
  -24.6510   16.8385  -32.7153 N   0  0  0  0  0  0
  -17.6753   21.8661  -26.7429 N   0  0  0  0  0  0
  -19.0308   21.5884  -26.3614 N   0  0  0  0  0  0
  -22.0034   16.5796  -28.7266 N   0  0  0  0  0  0
  -19.8137   18.4329  -28.0914 N   0  0  0  0  0  0
  -26.5138   18.1185  -32.8015 O   0  0  0  0  0  0
  -15.6107   22.6210  -26.2546 O   0  0  0  0  0  0
  -20.7138   21.8213  -24.8013 O   0  0  0  0  0  0
  -21.6107   15.1388  -30.4017 O   0  0  0  0  0  0
  -18.8107   18.8381  -26.0991 O   0  0  0  0  0  0
  -21.4257   14.7197  -20.3886 H   0  0  0  0  0  0
  -19.7295   13.2855  -21.4339 H   0  0  0  0  0  0
  -22.6831   16.3670  -21.7328 H   0  0  0  0  0  0
  -19.2614   13.4611  -23.8634 H   0  0  0  0  0  0
  -23.1503   17.4292  -23.9496 H   0  0  0  0  0  0
  -22.7025   17.5991  -26.3524 H   0  0  0  0  0  0
  -19.7304   14.5101  -26.0468 H   0  0  0  0  0  0
  -23.5993   18.5831  -29.4624 H   0  0  0  0  0  0
  -25.3962   19.4735  -30.8175 H   0  0  0  0  0  0
  -16.8565   24.0163  -24.3641 H   0  0  0  0  0  0
  -19.1098   23.5281  -23.6411 H   0  0  0  0  0  0
  -23.2227   15.4212  -32.4017 H   0  0  0  0  0  0
  -20.8616   20.8164  -27.1402 H   0  0  0  0  0  0
  -19.5861   21.0225  -28.3149 H   0  0  0  0  0  0
  -19.2528   16.7569  -29.1756 H   0  0  0  0  0  0
  -18.8106   16.6654  -27.5036 H   0  0  0  0  0  0
  -20.6475   15.1158  -28.1386 H   0  0  0  0  0  0
  -25.0232   16.3419  -33.5162 H   0  0  0  0  0  0
  -17.3512   21.2349  -27.4598 H   0  0  0  0  0  0
  -22.5417   17.3650  -28.4022 H   0  0  0  0  0  0
  -20.2746   18.8492  -28.8860 H   0  0  0  0  0  0
  1  2  1  0  0  0
  1  3  2  0  0  0
  1 35  1  0  0  0
  2  4  2  0  0  0
  2 36  1  0  0  0
  3  8  1  0  0  0
  3 37  1  0  0  0
  4  9  1  0  0  0
  4 38  1  0  0  0
  5  6  2  0  0  0
  5  8  1  0  0  0
  5 39  1  0  0  0
  6 10  1  0  0  0
  6 40  1  0  0  0
  7  9  1  0  0  0
  7 10  2  0  0  0
  7 41  1  0  0  0
  8  9  2  0  0  0
 10 24  1  0  0  0
 11 12  2  0  0  0
 11 16  1  0  0  0
 11 42  1  0  0  0
 12 17  1  0  0  0
 12 43  1  0  0  0
 13 14  2  0  0  0
 13 18  1  0  0  0
 13 44  1  0  0  0
 14 19  1  0  0  0
 14 45  1  0  0  0
 15 16  2  0  0  0
 15 25  1  0  0  0
 15 46  1  0  0  0
 16 20  1  0  0  0
 17 25  1  0  0  0
 17 30  2  0  0  0
 18 26  1  0  0  0
 18 31  2  0  0  0
 19 27  1  0  0  0
 19 32  2  0  0  0
 20 28  1  0  0  0
 20 33  2  0  0  0
 21 22  1  0  0  0
 21 29  1  0  0  0
 21 34  2  0  0  0
 22 27  1  0  0  0
 22 47  1  0  0  0
 22 48  1  0  0  0
 23 24  1  0  0  0
 23 29  1  0  0  0
 23 49  1  0  0  0
 23 50  1  0  0  0
 24 28  1  0  0  0
 24 51  1  0  0  0
 25 52  1  0  0  0
 26 27  1  0  0  0
 26 53  1  0  0  0
 28 54  1  0  0  0
 29 55  1  0  0  0
M  END
> <s_i_glide_gridfile>
Cov2_glide-grid_1

> <i_i_glide_lignum>
21

> <i_i_glide_rotatable_bonds>
9

> <r_i_docking_score>
-8.0417

> <r_i_glide_ligand_efficiency>
-0.236521

> <r_i_glide_ligand_efficiency_sa>
-0.766235

> <r_i_glide_ligand_efficiency_ln>
-1.77664

> <r_i_glide_gscore>
-8.0417

> <r_i_glide_lipo>
-3.05303

> <r_i_glide_hbond>
-0.843298

> <r_i_glide_metal>
-0

> <r_i_glide_rewards>
-0.818971

> <r_i_glide_evdw>
-53.2131

> <r_i_glide_ecoul>
-8.25091

> <r_i_glide_erotb>
0.571888

> <r_i_glide_esite>
0

> <r_i_glide_emodel>
-87.4444

> <r_i_glide_energy>
-61.464

> <r_i_glide_einternal>
7.57915

> <i_i_glide_confnum>
8

> <i_i_glide_posenum>
121

> <r_i_glide_eff_state_penalty>
0

$$$$
42
                    3D
 Structure written by MMmdl.
 60 63  0  0  1  0            999 V2000
  -20.6247   14.2167  -21.2006 C   0  0  0  0  0  0
  -19.6418   13.6937  -22.0313 C   0  0  0  0  0  0
  -21.5674   15.1097  -21.6997 C   0  0  0  0  0  0
  -19.6093   14.0183  -23.3858 C   0  0  0  0  0  0
  -22.4780   16.3948  -23.5959 C   0  0  0  0  0  0
  -22.4508   16.7262  -24.9432 C   0  0  0  0  0  0
  -20.5668   15.2625  -25.3121 C   0  0  0  0  0  0
  -21.5487   15.4746  -23.0687 C   0  0  0  0  0  0
  -20.5655   14.9077  -23.9350 C   0  0  0  0  0  0
  -21.5049   16.1752  -25.8121 C   0  0  0  0  0  0
  -19.3789   22.4728  -25.5154 C   0  0  0  0  0  0
  -24.9949   16.5778  -32.2293 C   0  0  0  0  0  0
  -18.0105   24.0447  -24.6129 C   0  0  0  0  0  0
  -18.3817   21.7867  -26.1386 C   0  0  0  0  0  0
  -23.7430   17.0266  -31.9494 C   0  0  0  0  0  0
  -17.0272   22.3306  -26.0015 C   0  0  0  0  0  0
  -23.5517   18.4715  -31.8292 C   0  0  0  0  0  0
  -25.9133   18.6598  -32.3039 C   0  0  0  0  0  0
  -18.5555   20.4828  -26.7837 C   0  0  0  0  0  0
  -19.7465   19.8709  -26.9737 C   0  0  0  0  0  0
  -19.8499   18.5057  -27.4277 C   0  0  0  0  0  0
  -22.3481   15.6174  -30.3435 C   0  0  0  0  0  0
  -27.0669   19.6053  -32.5350 C   0  0  0  0  0  0
  -22.5200   16.1128  -31.7863 C   0  0  0  0  0  0
  -20.9108   15.6393  -28.3105 C   0  0  0  0  0  0
  -21.5323   16.6286  -27.2795 C   0  0  2  0  0  0
  -19.2075   23.6217  -24.8001 N   0  0  0  0  0  0
  -26.0803   17.3901  -32.4012 N   0  0  0  0  0  0
  -16.9505   23.4214  -25.2027 N   0  0  0  0  0  0
  -24.6832   19.1857  -32.0259 N   0  0  0  0  0  0
  -21.1086   18.0362  -27.3713 N   0  0  0  0  0  0
  -21.2269   15.9876  -29.6997 N   0  0  0  0  0  0
  -16.0112   21.8581  -26.5076 O   0  0  0  0  0  0
  -22.4953   19.0421  -31.5789 O   0  0  0  0  0  0
  -18.8736   17.8195  -27.7200 O   0  0  0  0  0  0
  -23.2107   14.9019  -29.8349 O   0  0  0  0  0  0
  -20.6450   13.9435  -20.1553 H   0  0  0  0  0  0
  -18.9030   13.0249  -21.6151 H   0  0  0  0  0  0
  -22.3143   15.5331  -21.0431 H   0  0  0  0  0  0
  -18.8459   13.5978  -24.0204 H   0  0  0  0  0  0
  -23.2088   16.8465  -22.9408 H   0  0  0  0  0  0
  -23.1740   17.4348  -25.3193 H   0  0  0  0  0  0
  -19.8115   14.8341  -25.9546 H   0  0  0  0  0  0
  -20.3935   22.1009  -25.5301 H   0  0  0  0  0  0
  -25.1752   15.5177  -32.3325 H   0  0  0  0  0  0
  -17.8012   24.9150  -23.9961 H   0  0  0  0  0  0
  -17.6602   19.9521  -27.0903 H   0  0  0  0  0  0
  -20.6779   20.3588  -26.7316 H   0  0  0  0  0  0
  -28.0072   19.1711  -32.1897 H   0  0  0  0  0  0
  -26.9266   20.5523  -32.0098 H   0  0  0  0  0  0
  -27.1707   19.8212  -33.6000 H   0  0  0  0  0  0
  -21.6119   16.6010  -32.1476 H   0  0  0  0  0  0
  -22.6464   15.2235  -32.3995 H   0  0  0  0  0  0
  -19.8271   15.5866  -28.2063 H   0  0  0  0  0  0
  -21.2618   14.6263  -28.0993 H   0  0  0  0  0  0
  -22.5916   16.6386  -27.5418 H   0  0  0  0  0  0
  -16.0226   23.7612  -25.0095 H   0  0  0  0  0  0
  -24.5599   20.1818  -31.9579 H   0  0  0  0  0  0
  -21.8283   18.7087  -27.1627 H   0  0  0  0  0  0
  -20.5564   16.5599  -30.1902 H   0  0  0  0  0  0
  1  2  1  0  0  0
  1  3  2  0  0  0
  1 37  1  0  0  0
  2  4  2  0  0  0
  2 38  1  0  0  0
  3  8  1  0  0  0
  3 39  1  0  0  0
  4  9  1  0  0  0
  4 40  1  0  0  0
  5  6  2  0  0  0
  5  8  1  0  0  0
  5 41  1  0  0  0
  6 10  1  0  0  0
  6 42  1  0  0  0
  7  9  1  0  0  0
  7 10  2  0  0  0
  7 43  1  0  0  0
  8  9  2  0  0  0
 10 26  1  0  0  0
 11 14  2  0  0  0
 11 27  1  0  0  0
 11 44  1  0  0  0
 12 15  2  0  0  0
 12 28  1  0  0  0
 12 45  1  0  0  0
 13 27  2  0  0  0
 13 29  1  0  0  0
 13 46  1  0  0  0
 14 16  1  0  0  0
 14 19  1  0  0  0
 15 17  1  0  0  0
 15 24  1  0  0  0
 16 29  1  0  0  0
 16 33  2  0  0  0
 17 30  1  0  0  0
 17 34  2  0  0  0
 18 23  1  0  0  0
 18 28  2  0  0  0
 18 30  1  0  0  0
 19 20  2  0  0  0
 19 47  1  0  0  0
 20 21  1  0  0  0
 20 48  1  0  0  0
 21 31  1  0  0  0
 21 35  2  0  0  0
 22 24  1  0  0  0
 22 32  1  0  0  0
 22 36  2  0  0  0
 23 49  1  0  0  0
 23 50  1  0  0  0
 23 51  1  0  0  0
 24 52  1  0  0  0
 24 53  1  0  0  0
 25 26  1  0  0  0
 25 32  1  0  0  0
 25 54  1  0  0  0
 25 55  1  0  0  0
 26 31  1  0  0  0
 26 56  1  0  0  0
 29 57  1  0  0  0
 30 58  1  0  0  0
 31 59  1  0  0  0
 32 60  1  0  0  0
M  END
> <s_i_glide_gridfile>
Cov2_glide-grid_1

> <i_i_glide_lignum>
43

> <i_i_glide_rotatable_bonds>
10

> <r_i_docking_score>
-8.03466

> <r_i_glide_ligand_efficiency>
-0.223185

> <r_i_glide_ligand_efficiency_sa>
-0.73694

> <r_i_glide_ligand_efficiency_ln>
-1.75295

> <r_i_glide_gscore>
-8.03466

> <r_i_glide_lipo>
-3.55451

> <r_i_glide_hbond>
-0.37681

> <r_i_glide_metal>
-0

> <r_i_glide_rewards>
-0.73792

> <r_i_glide_evdw>
-54.9512

> <r_i_glide_ecoul>
-7.78697

> <r_i_glide_erotb>
0.692097

> <r_i_glide_esite>
-0.141911

> <r_i_glide_emodel>
-89.1029

> <r_i_glide_energy>
-62.7381

> <r_i_glide_einternal>
11.6059

> <i_i_glide_confnum>
166

> <i_i_glide_posenum>
44

> <r_i_glide_eff_state_penalty>
0

$$$$
96
                    3D
 Structure written by MMmdl.
 61 64  0  0  1  0            999 V2000
  -22.1644   12.8519  -29.7610 C   0  0  0  0  0  0
  -23.1291   13.6254  -30.3979 C   0  0  0  0  0  0
  -21.0145   13.4421  -29.2432 C   0  0  0  0  0  0
  -22.9693   15.0044  -30.5175 C   0  0  0  0  0  0
  -19.6530   15.4687  -28.8621 C   0  0  0  0  0  0
  -19.4904   16.8455  -28.9829 C   0  0  0  0  0  0
  -21.6189   17.0393  -30.1013 C   0  0  0  0  0  0
  -20.8160   14.8413  -29.3599 C   0  0  0  0  0  0
  -21.8123   15.6385  -30.0007 C   0  0  0  0  0  0
  -20.4647   17.6434  -29.5862 C   0  0  0  0  0  0
  -23.8289   24.2344  -32.8273 C   0  0  0  0  0  0
  -24.1983   22.9654  -32.5446 C   0  0  0  0  0  0
  -20.0756   16.3810  -23.0153 C   0  0  0  0  0  0
  -20.1643   16.0669  -24.3380 C   0  0  0  0  0  0
  -22.4790   24.6008  -33.1959 C   0  0  0  0  0  0
  -23.2740   21.8484  -32.5507 C   0  0  0  0  0  0
  -20.2757   14.6495  -24.6800 C   0  0  0  0  0  0
  -20.1484   14.2216  -22.3104 C   0  0  0  0  0  0
  -20.1252   17.0425  -25.4229 C   0  0  0  0  0  0
  -19.6481   18.3045  -25.3203 C   0  0  0  0  0  0
  -19.6097   19.2094  -26.4407 C   0  0  0  0  0  0
  -20.3880   20.9317  -31.4558 C   0  0  0  0  0  0
  -20.1040   13.1815  -21.2266 C   0  0  0  0  0  0
  -20.8796   21.2172  -32.8840 C   0  0  0  0  0  0
  -20.8913   19.9251  -28.4646 C   0  0  0  0  0  0
  -20.2528   19.1658  -29.6668 C   0  0  2  0  0  0
  -20.0805   15.4630  -22.0024 N   0  0  0  0  0  0
  -20.2450   13.8211  -23.6130 N   0  0  0  0  0  0
  -21.6151   23.5546  -33.1532 N   0  0  0  0  0  0
  -21.9757   22.2024  -32.8393 N   0  0  0  0  0  0
  -20.7371   19.2473  -27.1734 N   0  0  0  0  0  0
  -20.6498   19.7037  -30.9749 N   0  0  0  0  0  0
  -22.1306   25.7286  -33.5399 O   0  0  0  0  0  0
  -23.6412   20.6996  -32.3088 O   0  0  0  0  0  0
  -20.4022   14.1870  -25.8094 O   0  0  0  0  0  0
  -18.5992   19.8566  -26.7081 O   0  0  0  0  0  0
  -19.7885   21.8020  -30.8234 O   0  0  0  0  0  0
  -22.3059   11.7856  -29.6746 H   0  0  0  0  0  0
  -24.0108   13.1521  -30.8010 H   0  0  0  0  0  0
  -20.2687   12.8356  -28.7491 H   0  0  0  0  0  0
  -23.7280   15.5983  -31.0063 H   0  0  0  0  0  0
  -18.8904   14.8717  -28.3819 H   0  0  0  0  0  0
  -18.5909   17.2966  -28.5893 H   0  0  0  0  0  0
  -22.3855   17.6379  -30.5726 H   0  0  0  0  0  0
  -24.5631   25.0257  -32.7939 H   0  0  0  0  0  0
  -25.2261   22.7571  -32.2839 H   0  0  0  0  0  0
  -20.0110   17.4130  -22.7034 H   0  0  0  0  0  0
  -20.5039   16.7178  -26.3868 H   0  0  0  0  0  0
  -19.2370   18.6952  -24.4003 H   0  0  0  0  0  0
  -20.7755   13.4384  -20.4029 H   0  0  0  0  0  0
  -20.4104   12.2093  -21.6027 H   0  0  0  0  0  0
  -19.0956   13.0934  -20.8175 H   0  0  0  0  0  0
  -20.0424   21.5700  -33.4887 H   0  0  0  0  0  0
  -21.2100   20.2961  -33.3694 H   0  0  0  0  0  0
  -21.9628   20.0276  -28.6422 H   0  0  0  0  0  0
  -20.5007   20.9418  -28.4037 H   0  0  0  0  0  0
  -19.1756   19.3177  -29.6025 H   0  0  0  0  0  0
  -20.3311   12.8486  -23.8644 H   0  0  0  0  0  0
  -20.6669   23.6269  -33.4912 H   0  0  0  0  0  0
  -21.5328   18.7220  -26.8441 H   0  0  0  0  0  0
  -21.0980   19.0419  -31.5938 H   0  0  0  0  0  0
  1  2  1  0  0  0
  1  3  2  0  0  0
  1 38  1  0  0  0
  2  4  2  0  0  0
  2 39  1  0  0  0
  3  8  1  0  0  0
  3 40  1  0  0  0
  4  9  1  0  0  0
  4 41  1  0  0  0
  5  6  2  0  0  0
  5  8  1  0  0  0
  5 42  1  0  0  0
  6 10  1  0  0  0
  6 43  1  0  0  0
  7  9  1  0  0  0
  7 10  2  0  0  0
  7 44  1  0  0  0
  8  9  2  0  0  0
 10 26  1  0  0  0
 11 12  2  0  0  0
 11 15  1  0  0  0
 11 45  1  0  0  0
 12 16  1  0  0  0
 12 46  1  0  0  0
 13 14  2  0  0  0
 13 27  1  0  0  0
 13 47  1  0  0  0
 14 17  1  0  0  0
 14 19  1  0  0  0
 15 29  1  0  0  0
 15 33  2  0  0  0
 16 30  1  0  0  0
 16 34  2  0  0  0
 17 28  1  0  0  0
 17 35  2  0  0  0
 18 23  1  0  0  0
 18 27  2  0  0  0
 18 28  1  0  0  0
 19 20  2  0  0  0
 19 48  1  0  0  0
 20 21  1  0  0  0
 20 49  1  0  0  0
 21 31  1  0  0  0
 21 36  2  0  0  0
 22 24  1  0  0  0
 22 32  1  0  0  0
 22 37  2  0  0  0
 23 50  1  0  0  0
 23 51  1  0  0  0
 23 52  1  0  0  0
 24 30  1  0  0  0
 24 53  1  0  0  0
 24 54  1  0  0  0
 25 26  1  0  0  0
 25 31  1  0  0  0
 25 55  1  0  0  0
 25 56  1  0  0  0
 26 32  1  0  0  0
 26 57  1  0  0  0
 28 58  1  0  0  0
 29 30  1  0  0  0
 29 59  1  0  0  0
 31 60  1  0  0  0
 32 61  1  0  0  0
M  END
> <s_i_glide_gridfile>
Cov2_glide-grid_1

> <i_i_glide_lignum>
100

> <i_i_glide_rotatable_bonds>
10

> <r_i_docking_score>
-8.01006

> <r_i_glide_ligand_efficiency>
-0.216488

> <r_i_glide_ligand_efficiency_sa>
-0.721387

> <r_i_glide_ligand_efficiency_ln>
-1.73719

> <r_i_glide_gscore>
-8.01006

> <r_i_glide_lipo>
-3.29747

> <r_i_glide_hbond>
-0.606427

> <r_i_glide_metal>
-0

> <r_i_glide_rewards>
-0.911263

> <r_i_glide_evdw>
-57.2933

> <r_i_glide_ecoul>
-6.53532

> <r_i_glide_erotb>
0.652123

> <r_i_glide_esite>
-0.0020618

> <r_i_glide_emodel>
-88.9865

> <r_i_glide_energy>
-63.8286

> <r_i_glide_einternal>
12.1418

> <i_i_glide_confnum>
138

> <i_i_glide_posenum>
391

> <r_i_glide_eff_state_penalty>
0

$$$$
10
                    3D
 Structure written by MMmdl.
 55 58  0  0  1  0            999 V2000
  -22.0122   12.7224  -30.0014 C   0  0  0  0  0  0
  -23.0962   13.5002  -30.3927 C   0  0  0  0  0  0
  -20.8634   13.3189  -29.4870 C   0  0  0  0  0  0
  -23.0554   14.8872  -30.2706 C   0  0  0  0  0  0
  -19.6373   15.3673  -28.8326 C   0  0  0  0  0  0
  -19.6037   16.7510  -28.6968 C   0  0  0  0  0  0
  -21.8412   16.9349  -29.5780 C   0  0  0  0  0  0
  -20.7905   14.7281  -29.3459 C   0  0  0  0  0  0
  -21.9071   15.5270  -29.7382 C   0  0  0  0  0  0
  -20.6969   17.5450  -29.0444 C   0  0  0  0  0  0
  -23.2416   20.7300  -31.8008 C   0  0  0  0  0  0
  -21.9629   22.7885  -31.8150 C   0  0  0  0  0  0
  -19.7457   15.0370  -22.7263 C   0  0  0  0  0  0
  -23.9626   21.2377  -32.8212 C   0  0  0  0  0  0
  -20.7662   13.8208  -21.0930 C   0  0  0  0  0  0
  -22.1568   21.5599  -31.2481 C   0  0  0  0  0  0
  -20.8240   15.8412  -22.9543 C   0  0  0  0  0  0
  -22.7297   23.2954  -32.9506 C   0  0  0  0  0  0
  -22.0105   15.6038  -22.1365 C   0  0  0  0  0  0
  -20.8703   16.9134  -23.9527 C   0  0  0  0  0  0
  -19.7915   17.3812  -24.6180 C   0  0  0  0  0  0
  -21.3627   21.1326  -30.0996 C   0  0  0  0  0  0
  -19.8046   18.4181  -25.6212 C   0  0  0  0  0  0
  -21.1649   19.4901  -27.4214 C   0  0  0  0  0  0
  -20.6284   19.0671  -28.8274 C   0  0  2  0  0  0
  -19.7193   14.0184  -21.8118 N   0  0  0  0  0  0
  -23.7242   22.4687  -33.3731 N   0  0  0  0  0  0
  -21.8796   14.5930  -21.2467 N   0  0  0  0  0  0
  -21.2952   19.7974  -29.9179 N   0  0  0  0  0  0
  -20.9444   18.5401  -26.3243 N   0  0  0  0  0  0
  -22.5096   24.3685  -33.5016 O   0  0  0  0  0  0
  -23.0717   16.2212  -22.2121 O   0  0  0  0  0  0
  -20.8109   21.9344  -29.3392 O   0  0  0  0  0  0
  -18.8113   19.1124  -25.8331 O   0  0  0  0  0  0
  -22.0551   11.6470  -30.1030 H   0  0  0  0  0  0
  -23.9775   13.0250  -30.7978 H   0  0  0  0  0  0
  -20.0199   12.7092  -29.1962 H   0  0  0  0  0  0
  -23.9042   15.4844  -30.5753 H   0  0  0  0  0  0
  -18.7835   14.7697  -28.5471 H   0  0  0  0  0  0
  -18.7097   17.2087  -28.2942 H   0  0  0  0  0  0
  -22.7014   17.5267  -29.8567 H   0  0  0  0  0  0
  -23.4876   19.7563  -31.4009 H   0  0  0  0  0  0
  -21.2110   23.4588  -31.4310 H   0  0  0  0  0  0
  -18.8345   15.1564  -23.2967 H   0  0  0  0  0  0
  -24.7862   20.7223  -33.2969 H   0  0  0  0  0  0
  -20.8007   13.0261  -20.3491 H   0  0  0  0  0  0
  -21.8372   17.3518  -24.1743 H   0  0  0  0  0  0
  -18.8101   16.9978  -24.3992 H   0  0  0  0  0  0
  -22.2464   19.6201  -27.4817 H   0  0  0  0  0  0
  -20.7714   20.4714  -27.1474 H   0  0  0  0  0  0
  -19.5712   19.3392  -28.8819 H   0  0  0  0  0  0
  -24.2728   22.8319  -34.1381 H   0  0  0  0  0  0
  -22.6949   14.4265  -20.6817 H   0  0  0  0  0  0
  -21.6976   19.2171  -30.6374 H   0  0  0  0  0  0
  -21.7046   17.9103  -26.1122 H   0  0  0  0  0  0
  1  2  1  0  0  0
  1  3  2  0  0  0
  1 35  1  0  0  0
  2  4  2  0  0  0
  2 36  1  0  0  0
  3  8  1  0  0  0
  3 37  1  0  0  0
  4  9  1  0  0  0
  4 38  1  0  0  0
  5  6  2  0  0  0
  5  8  1  0  0  0
  5 39  1  0  0  0
  6 10  1  0  0  0
  6 40  1  0  0  0
  7  9  1  0  0  0
  7 10  2  0  0  0
  7 41  1  0  0  0
  8  9  2  0  0  0
 10 25  1  0  0  0
 11 14  2  0  0  0
 11 16  1  0  0  0
 11 42  1  0  0  0
 12 16  2  0  0  0
 12 18  1  0  0  0
 12 43  1  0  0  0
 13 17  2  0  0  0
 13 26  1  0  0  0
 13 44  1  0  0  0
 14 27  1  0  0  0
 14 45  1  0  0  0
 15 26  2  0  0  0
 15 28  1  0  0  0
 15 46  1  0  0  0
 16 22  1  0  0  0
 17 19  1  0  0  0
 17 20  1  0  0  0
 18 27  1  0  0  0
 18 31  2  0  0  0
 19 28  1  0  0  0
 19 32  2  0  0  0
 20 21  2  0  0  0
 20 47  1  0  0  0
 21 23  1  0  0  0
 21 48  1  0  0  0
 22 29  1  0  0  0
 22 33  2  0  0  0
 23 30  1  0  0  0
 23 34  2  0  0  0
 24 25  1  0  0  0
 24 30  1  0  0  0
 24 49  1  0  0  0
 24 50  1  0  0  0
 25 29  1  0  0  0
 25 51  1  0  0  0
 27 52  1  0  0  0
 28 53  1  0  0  0
 29 54  1  0  0  0
 30 55  1  0  0  0
M  END
> <s_i_glide_gridfile>
Cov2_glide-grid_1

> <i_i_glide_lignum>
38

> <i_i_glide_rotatable_bonds>
9

> <r_i_docking_score>
-7.92854

> <r_i_glide_ligand_efficiency>
-0.233192

> <r_i_glide_ligand_efficiency_sa>
-0.755453

> <r_i_glide_ligand_efficiency_ln>
-1.75164

> <r_i_glide_gscore>
-7.92854

> <r_i_glide_lipo>
-2.95549

> <r_i_glide_hbond>
-0.748796

> <r_i_glide_metal>
-0

> <r_i_glide_rewards>
-0.80199

> <r_i_glide_evdw>
-48.2567

> <r_i_glide_ecoul>
-10.5312

> <r_i_glide_erotb>
0.581039

> <r_i_glide_esite>
-0.0107905

> <r_i_glide_emodel>
-83.3534

> <r_i_glide_energy>
-58.7879

> <r_i_glide_einternal>
8.91879

> <i_i_glide_confnum>
56

> <i_i_glide_posenum>
117

> <r_i_glide_eff_state_penalty>
0

$$$$
43
                    3D
 Structure written by MMmdl.
 56 59  0  0  1  0            999 V2000
  -21.1528   13.1564  -29.3598 C   0  0  0  0  0  0
  -19.9018   13.7713  -29.4539 C   0  0  0  0  0  0
  -22.1469   13.7163  -28.5575 C   0  0  0  0  0  0
  -19.6347   14.9399  -28.7433 C   0  0  0  0  0  0
  -21.8951   14.9034  -27.8689 C   0  0  0  0  0  0
  -20.6264   15.4964  -27.9302 C   0  0  0  0  0  0
  -17.8954   23.2556  -24.8248 C   0  0  0  0  0  0
  -16.9697   22.6540  -25.6052 C   0  0  0  0  0  0
  -19.2818   22.8328  -24.9187 C   0  0  0  0  0  0
  -23.3825   20.8655  -31.8729 C   0  0  0  0  0  0
  -19.5577   21.8419  -25.7904 C   0  0  0  0  0  0
  -22.7071   21.0491  -30.7077 C   0  0  0  0  0  0
  -17.2926   21.5710  -26.5341 C   0  0  0  0  0  0
  -21.9693   22.3052  -30.5546 C   0  0  0  0  0  0
  -22.8434   22.9118  -32.7229 C   0  0  0  0  0  0
  -22.6012   20.0200  -29.6808 C   0  0  0  0  0  0
  -22.9628   20.2253  -28.3945 C   0  0  0  0  0  0
  -22.7337   19.3036  -27.3058 C   0  0  0  0  0  0
  -19.2123   18.7799  -26.7879 C   0  0  0  0  0  0
  -22.7739   15.6452  -26.8862 C   0  0  0  0  0  0
  -20.5511   16.6776  -26.9797 C   0  0  2  0  0  0
  -22.0540   16.9866  -26.6989 C   0  0  1  0  0  0
  -22.9051   23.9756  -33.7938 C   0  0  0  0  0  0
  -18.9943   20.1178  -27.5237 C   0  0  0  0  0  0
  -23.4697   21.8001  -32.8683 N   0  0  0  0  0  0
  -22.1057   23.1531  -31.5994 N   0  0  0  0  0  0
  -18.6252   21.2095  -26.5914 N   0  0  0  0  0  0
  -22.6217   17.9966  -27.6141 N   0  0  0  0  0  0
  -19.8189   17.8361  -27.5225 N   0  0  0  0  0  0
  -16.4107   21.0335  -27.2002 O   0  0  0  0  0  0
  -21.2556   22.6206  -29.6017 O   0  0  0  0  0  0
  -22.5612   19.7362  -26.1681 O   0  0  0  0  0  0
  -18.9148   18.6242  -25.6019 O   0  0  0  0  0  0
  -21.3455   12.2411  -29.9019 H   0  0  0  0  0  0
  -19.1331   13.3326  -30.0715 H   0  0  0  0  0  0
  -23.1069   13.2273  -28.4771 H   0  0  0  0  0  0
  -18.6540   15.3891  -28.8084 H   0  0  0  0  0  0
  -17.6036   24.0306  -24.1253 H   0  0  0  0  0  0
  -15.9396   22.9640  -25.5239 H   0  0  0  0  0  0
  -20.0452   23.2853  -24.3019 H   0  0  0  0  0  0
  -23.9071   19.9369  -32.0498 H   0  0  0  0  0  0
  -20.5514   21.4328  -25.9179 H   0  0  0  0  0  0
  -22.1711   19.0699  -29.9742 H   0  0  0  0  0  0
  -23.3985   21.1667  -28.0917 H   0  0  0  0  0  0
  -22.7896   15.0918  -25.9464 H   0  0  0  0  0  0
  -23.8162   15.7567  -27.1878 H   0  0  0  0  0  0
  -20.0944   16.3231  -26.0516 H   0  0  0  0  0  0
  -22.1611   17.3005  -25.6551 H   0  0  0  0  0  0
  -23.9395   24.2034  -34.0442 H   0  0  0  0  0  0
  -22.4283   24.9035  -33.4809 H   0  0  0  0  0  0
  -22.4108   23.6363  -34.7030 H   0  0  0  0  0  0
  -18.2897   20.0047  -28.3481 H   0  0  0  0  0  0
  -19.9331   20.3968  -28.0024 H   0  0  0  0  0  0
  -21.6030   24.0176  -31.5082 H   0  0  0  0  0  0
  -22.8343   17.6907  -28.5503 H   0  0  0  0  0  0
  -19.9281   17.9955  -28.5129 H   0  0  0  0  0  0
  1  2  1  0  0  0
  1  3  2  0  0  0
  1 34  1  0  0  0
  2  4  2  0  0  0
  2 35  1  0  0  0
  3  5  1  0  0  0
  3 36  1  0  0  0
  4  6  1  0  0  0
  4 37  1  0  0  0
  5  6  2  0  0  0
  5 20  1  0  0  0
  6 21  1  0  0  0
  7  8  2  0  0  0
  7  9  1  0  0  0
  7 38  1  0  0  0
  8 13  1  0  0  0
  8 39  1  0  0  0
  9 11  2  0  0  0
  9 40  1  0  0  0
 10 12  2  0  0  0
 10 25  1  0  0  0
 10 41  1  0  0  0
 11 27  1  0  0  0
 11 42  1  0  0  0
 12 14  1  0  0  0
 12 16  1  0  0  0
 13 27  1  0  0  0
 13 30  2  0  0  0
 14 26  1  0  0  0
 14 31  2  0  0  0
 15 23  1  0  0  0
 15 25  2  0  0  0
 15 26  1  0  0  0
 16 17  2  0  0  0
 16 43  1  0  0  0
 17 18  1  0  0  0
 17 44  1  0  0  0
 18 28  1  0  0  0
 18 32  2  0  0  0
 19 24  1  0  0  0
 19 29  1  0  0  0
 19 33  2  0  0  0
 20 22  1  0  0  0
 20 45  1  0  0  0
 20 46  1  0  0  0
 21 22  1  0  0  0
 21 29  1  0  0  0
 21 47  1  0  0  0
 22 28  1  0  0  0
 22 48  1  0  0  0
 23 49  1  0  0  0
 23 50  1  0  0  0
 23 51  1  0  0  0
 24 27  1  0  0  0
 24 52  1  0  0  0
 24 53  1  0  0  0
 26 54  1  0  0  0
 28 55  1  0  0  0
 29 56  1  0  0  0
M  END
> <s_i_glide_gridfile>
Cov2_glide-grid_1

> <i_i_glide_lignum>
25

> <i_i_glide_rotatable_bonds>
8

> <r_i_docking_score>
-7.92558

> <r_i_glide_ligand_efficiency>
-0.240169

> <r_i_glide_ligand_efficiency_sa>
-0.77035

> <r_i_glide_ligand_efficiency_ln>
-1.76261

> <r_i_glide_gscore>
-7.92558

> <r_i_glide_lipo>
-2.69647

> <r_i_glide_hbond>
-0.836485

> <r_i_glide_metal>
-0

> <r_i_glide_rewards>
-0.905243

> <r_i_glide_evdw>
-44.7388

> <r_i_glide_ecoul>
-13.0415

> <r_i_glide_erotb>
0.705787

> <r_i_glide_esite>
0

> <r_i_glide_emodel>
-78.899

> <r_i_glide_energy>
-57.7803

> <r_i_glide_einternal>
10.0379

> <i_i_glide_confnum>
105

> <i_i_glide_posenum>
309

> <r_i_glide_eff_state_penalty>
0

$$$$
72
                    3D
 Structure written by MMmdl.
 53 56  0  0  1  0            999 V2000
  -22.9133   14.0432  -29.9015 C   0  0  0  0  0  0
  -22.6693   15.3441  -30.3425 C   0  0  0  0  0  0
  -22.3272   13.5824  -28.7220 C   0  0  0  0  0  0
  -21.8324   16.1858  -29.6083 C   0  0  0  0  0  0
  -21.5105   14.4300  -27.9717 C   0  0  0  0  0  0
  -21.2439   15.7261  -28.4256 C   0  0  0  0  0  0
  -23.0948   15.9146  -20.5745 C   0  0  0  0  0  0
  -23.4352   15.1564  -19.5031 C   0  0  0  0  0  0
  -17.5660   23.0183  -25.2018 C   0  0  0  0  0  0
  -18.7455   22.8306  -24.5711 C   0  0  0  0  0  0
  -21.6595   14.1840  -21.3080 C   0  0  0  0  0  0
  -22.1497   15.4221  -21.5783 C   0  0  0  0  0  0
  -22.8939   13.8208  -19.2803 C   0  0  0  0  0  0
  -17.1419   22.2126  -26.3255 C   0  0  0  0  0  0
  -19.7443   21.8772  -25.0115 C   0  0  0  0  0  0
  -20.8258   15.7223  -23.8421 C   0  0  0  0  0  0
  -19.8190   18.7493  -26.6458 C   0  0  0  0  0  0
  -20.6807   14.1264  -26.7442 C   0  0  0  0  0  0
  -20.2530   16.4172  -27.5040 C   0  0  2  0  0  0
  -20.2359   15.5106  -26.2442 C   0  0  1  0  0  0
  -21.8249   16.2827  -22.8116 C   0  0  0  0  0  0
  -20.2997   20.2077  -26.7841 C   0  0  0  0  0  0
  -21.9974   13.4210  -20.2186 N   0  0  0  0  0  0
  -18.1053   21.3662  -26.7719 N   0  0  0  0  0  0
  -19.3781   21.1655  -26.1314 N   0  0  0  0  0  0
  -20.5638   17.8430  -27.3015 N   0  0  0  0  0  0
  -21.1024   15.9481  -25.1404 N   0  0  0  0  0  0
  -23.2099   13.0961  -18.3424 O   0  0  0  0  0  0
  -16.0107   22.2211  -26.8018 O   0  0  0  0  0  0
  -20.8325   21.7695  -24.4453 O   0  0  0  0  0  0
  -19.8125   15.1275  -23.4737 O   0  0  0  0  0  0
  -18.8107   18.4597  -26.0037 O   0  0  0  0  0  0
  -23.5512   13.3902  -30.4794 H   0  0  0  0  0  0
  -23.1155   15.6948  -31.2625 H   0  0  0  0  0  0
  -22.5167   12.5714  -28.4018 H   0  0  0  0  0  0
  -21.6288   17.1790  -29.9807 H   0  0  0  0  0  0
  -23.5226   16.9015  -20.6832 H   0  0  0  0  0  0
  -24.1292   15.5378  -18.7700 H   0  0  0  0  0  0
  -16.8654   23.7462  -24.8127 H   0  0  0  0  0  0
  -18.9741   23.4239  -23.6959 H   0  0  0  0  0  0
  -20.9661   13.6456  -21.9376 H   0  0  0  0  0  0
  -19.8094   13.5459  -27.0524 H   0  0  0  0  0  0
  -21.1809   13.5253  -25.9831 H   0  0  0  0  0  0
  -19.2696   16.3337  -27.9742 H   0  0  0  0  0  0
  -19.2106   15.4209  -25.8924 H   0  0  0  0  0  0
  -22.7653   16.5249  -23.3074 H   0  0  0  0  0  0
  -21.4221   17.2345  -22.4640 H   0  0  0  0  0  0
  -20.3811   20.4572  -27.8427 H   0  0  0  0  0  0
  -21.3137   20.2646  -26.3831 H   0  0  0  0  0  0
  -21.6288   12.4828  -20.0718 H   0  0  0  0  0  0
  -17.9243   20.6705  -27.4801 H   0  0  0  0  0  0
  -21.4011   18.1692  -27.7605 H   0  0  0  0  0  0
  -21.9615   16.4094  -25.3953 H   0  0  0  0  0  0
  1  2  1  0  0  0
  1  3  2  0  0  0
  1 33  1  0  0  0
  2  4  2  0  0  0
  2 34  1  0  0  0
  3  5  1  0  0  0
  3 35  1  0  0  0
  4  6  1  0  0  0
  4 36  1  0  0  0
  5  6  2  0  0  0
  5 18  1  0  0  0
  6 19  1  0  0  0
  7  8  2  0  0  0
  7 12  1  0  0  0
  7 37  1  0  0  0
  8 13  1  0  0  0
  8 38  1  0  0  0
  9 10  2  0  0  0
  9 14  1  0  0  0
  9 39  1  0  0  0
 10 15  1  0  0  0
 10 40  1  0  0  0
 11 12  2  0  0  0
 11 23  1  0  0  0
 11 41  1  0  0  0
 12 21  1  0  0  0
 13 23  1  0  0  0
 13 28  2  0  0  0
 14 24  1  0  0  0
 14 29  2  0  0  0
 15 25  1  0  0  0
 15 30  2  0  0  0
 16 21  1  0  0  0
 16 27  1  0  0  0
 16 31  2  0  0  0
 17 22  1  0  0  0
 17 26  1  0  0  0
 17 32  2  0  0  0
 18 20  1  0  0  0
 18 42  1  0  0  0
 18 43  1  0  0  0
 19 20  1  0  0  0
 19 26  1  0  0  0
 19 44  1  0  0  0
 20 27  1  0  0  0
 20 45  1  0  0  0
 21 46  1  0  0  0
 21 47  1  0  0  0
 22 25  1  0  0  0
 22 48  1  0  0  0
 22 49  1  0  0  0
 23 50  1  0  0  0
 24 25  1  0  0  0
 24 51  1  0  0  0
 26 52  1  0  0  0
 27 53  1  0  0  0
M  END
> <s_i_glide_gridfile>
Cov2_glide-grid_1

> <i_i_glide_lignum>
63

> <i_i_glide_rotatable_bonds>
8

> <r_i_docking_score>
-7.92165

> <r_i_glide_ligand_efficiency>
-0.247552

> <r_i_glide_ligand_efficiency_sa>
-0.785928

> <r_i_glide_ligand_efficiency_ln>
-1.77387

> <r_i_glide_gscore>
-7.92165

> <r_i_glide_lipo>
-2.96909

> <r_i_glide_hbond>
-0.85583

> <r_i_glide_metal>
-0

> <r_i_glide_rewards>
-0.852982

> <r_i_glide_evdw>
-48.7559

> <r_i_glide_ecoul>
-9.53101

> <r_i_glide_erotb>
0.630509

> <r_i_glide_esite>
-0.00681203

> <r_i_glide_emodel>
-84.0196

> <r_i_glide_energy>
-58.2869

> <r_i_glide_einternal>
5.05362

> <i_i_glide_confnum>
102

> <i_i_glide_posenum>
328

> <r_i_glide_eff_state_penalty>
0

$$$$
69
                    3D
 Structure written by MMmdl.
 56 59  0  0  1  0            999 V2000
  -22.8106   13.2466  -28.8057 C   0  0  0  0  0  0
  -22.5495   13.5799  -30.1347 C   0  0  0  0  0  0
  -22.8106   14.2430  -27.8281 C   0  0  0  0  0  0
  -22.2784   14.9040  -30.4840 C   0  0  0  0  0  0
  -22.5797   15.5721  -28.1860 C   0  0  0  0  0  0
  -22.2801   15.9000  -29.5089 C   0  0  0  0  0  0
  -23.9966   23.6826  -32.5181 C   0  0  0  0  0  0
  -23.6725   23.4973  -31.2181 C   0  0  0  0  0  0
  -17.1986   21.6359  -27.1073 C   0  0  0  0  0  0
  -16.2003   23.0209  -25.6036 C   0  0  0  0  0  0
  -18.4508   21.7856  -26.5983 C   0  0  0  0  0  0
  -23.1980   23.1754  -33.6117 C   0  0  0  0  0  0
  -22.5086   22.7508  -30.7885 C   0  0  0  0  0  0
  -18.5807   22.6784  -25.4325 C   0  0  0  0  0  0
  -19.5803   21.0570  -27.1895 C   0  0  0  0  0  0
  -20.8317   20.9439  -26.6858 C   0  0  0  0  0  0
  -21.8904   20.1773  -27.2902 C   0  0  0  0  0  0
  -20.8105   19.9762  -31.1362 C   0  0  0  0  0  0
  -22.4737   16.7913  -27.3054 C   0  0  0  0  0  0
  -21.8986   17.3660  -29.6273 C   0  0  2  0  0  0
  -22.4074   17.9595  -28.2994 C   0  0  2  0  0  0
  -20.5537   21.4337  -31.5716 C   0  0  0  0  0  0
  -22.4104   18.0520  -30.9253 C   0  0  0  0  0  0
  -16.0694   22.2215  -26.6048 N   0  0  0  0  0  0
  -17.4182   23.2510  -25.0479 N   0  0  0  0  0  0
  -22.1521   22.4119  -33.1999 N   0  0  0  0  0  0
  -21.7891   22.2001  -31.8235 N   0  0  0  0  0  0
  -21.5093   18.9876  -27.7832 N   0  0  0  0  0  0
  -22.0578   19.4621  -31.1392 N   0  0  0  0  0  0
  -23.4184   23.4187  -34.7965 O   0  0  0  0  0  0
  -22.1990   22.6214  -29.6047 O   0  0  0  0  0  0
  -19.5972   22.9450  -24.8037 O   0  0  0  0  0  0
  -23.0542   20.5699  -27.2834 O   0  0  0  0  0  0
  -19.8302   19.3223  -30.7970 O   0  0  0  0  0  0
  -23.0168   12.2219  -28.5375 H   0  0  0  0  0  0
  -22.5390   12.8088  -30.8880 H   0  0  0  0  0  0
  -22.9978   13.9738  -26.8027 H   0  0  0  0  0  0
  -22.0378   15.1394  -31.5087 H   0  0  0  0  0  0
  -24.8862   24.2409  -32.7700 H   0  0  0  0  0  0
  -24.3066   23.9096  -30.4466 H   0  0  0  0  0  0
  -17.0426   20.9842  -27.9556 H   0  0  0  0  0  0
  -15.3447   23.5114  -25.1534 H   0  0  0  0  0  0
  -19.3845   20.5478  -28.1273 H   0  0  0  0  0  0
  -21.1345   21.4224  -25.7691 H   0  0  0  0  0  0
  -21.5509   16.7087  -26.7246 H   0  0  0  0  0  0
  -23.2950   16.9157  -26.5997 H   0  0  0  0  0  0
  -20.8078   17.3706  -29.6422 H   0  0  0  0  0  0
  -23.4321   18.3092  -28.4616 H   0  0  0  0  0  0
  -19.9753   21.9080  -30.7766 H   0  0  0  0  0  0
  -19.9109   21.4273  -32.4525 H   0  0  0  0  0  0
  -22.0435   17.5027  -31.7954 H   0  0  0  0  0  0
  -23.4984   17.9796  -30.9664 H   0  0  0  0  0  0
  -17.4824   23.8172  -24.2148 H   0  0  0  0  0  0
  -21.4566   22.0619  -33.8447 H   0  0  0  0  0  0
  -20.5347   18.7382  -27.7242 H   0  0  0  0  0  0
  -22.8261   20.0829  -31.3496 H   0  0  0  0  0  0
  1  2  1  0  0  0
  1  3  2  0  0  0
  1 35  1  0  0  0
  2  4  2  0  0  0
  2 36  1  0  0  0
  3  5  1  0  0  0
  3 37  1  0  0  0
  4  6  1  0  0  0
  4 38  1  0  0  0
  5  6  2  0  0  0
  5 19  1  0  0  0
  6 20  1  0  0  0
  7  8  2  0  0  0
  7 12  1  0  0  0
  7 39  1  0  0  0
  8 13  1  0  0  0
  8 40  1  0  0  0
  9 11  2  0  0  0
  9 24  1  0  0  0
  9 41  1  0  0  0
 10 24  2  0  0  0
 10 25  1  0  0  0
 10 42  1  0  0  0
 11 14  1  0  0  0
 11 15  1  0  0  0
 12 26  1  0  0  0
 12 30  2  0  0  0
 13 27  1  0  0  0
 13 31  2  0  0  0
 14 25  1  0  0  0
 14 32  2  0  0  0
 15 16  2  0  0  0
 15 43  1  0  0  0
 16 17  1  0  0  0
 16 44  1  0  0  0
 17 28  1  0  0  0
 17 33  2  0  0  0
 18 22  1  0  0  0
 18 29  1  0  0  0
 18 34  2  0  0  0
 19 21  1  0  0  0
 19 45  1  0  0  0
 19 46  1  0  0  0
 20 21  1  0  0  0
 20 23  1  0  0  0
 20 47  1  0  0  0
 21 28  1  0  0  0
 21 48  1  0  0  0
 22 27  1  0  0  0
 22 49  1  0  0  0
 22 50  1  0  0  0
 23 29  1  0  0  0
 23 51  1  0  0  0
 23 52  1  0  0  0
 25 53  1  0  0  0
 26 27  1  0  0  0
 26 54  1  0  0  0
 28 55  1  0  0  0
 29 56  1  0  0  0
M  END
> <s_i_glide_gridfile>
Cov2_glide-grid_1

> <i_i_glide_lignum>
92

> <i_i_glide_rotatable_bonds>
9

> <r_i_docking_score>
-7.92065

> <r_i_glide_ligand_efficiency>
-0.23296

> <r_i_glide_ligand_efficiency_sa>
-0.754701

> <r_i_glide_ligand_efficiency_ln>
-1.74989

> <r_i_glide_gscore>
-7.92065

> <r_i_glide_lipo>
-2.57715

> <r_i_glide_hbond>
-1.21932

> <r_i_glide_metal>
-0

> <r_i_glide_rewards>
-0.483325

> <r_i_glide_evdw>
-43.9038

> <r_i_glide_ecoul>
-13.2114

> <r_i_glide_erotb>
0.659328

> <r_i_glide_esite>
-0.123281

> <r_i_glide_emodel>
-79.4736

> <r_i_glide_energy>
-57.1152

> <r_i_glide_einternal>
12.1665

> <i_i_glide_confnum>
87

> <i_i_glide_posenum>
254

> <r_i_glide_eff_state_penalty>
0

$$$$
62
                    3D
 Structure written by MMmdl.
 55 58  0  0  1  0            999 V2000
  -25.8262   18.6783  -32.4009 C   0  0  0  0  0  0
  -25.8014   19.4996  -31.2786 C   0  0  0  0  0  0
  -24.8924   17.6579  -32.5499 C   0  0  0  0  0  0
  -24.8466   19.3079  -30.2822 C   0  0  0  0  0  0
  -22.9425   16.4161  -31.6878 C   0  0  0  0  0  0
  -22.0107   16.1965  -30.6789 C   0  0  0  0  0  0
  -22.9178   18.0278  -29.3982 C   0  0  0  0  0  0
  -23.9074   17.4390  -31.5599 C   0  0  0  0  0  0
  -23.8877   18.2711  -30.4008 C   0  0  0  0  0  0
  -21.9937   16.9848  -29.5275 C   0  0  0  0  0  0
  -22.2121   15.0752  -20.4025 C   0  0  0  0  0  0
  -21.6324   13.9252  -20.8064 C   0  0  0  0  0  0
  -20.0753   20.3144  -26.1905 C   0  0  0  0  0  0
  -19.3817   19.9489  -27.2995 C   0  0  0  0  0  0
  -22.0065   16.3385  -21.0751 C   0  0  0  0  0  0
  -20.8097   13.8216  -21.9938 C   0  0  0  0  0  0
  -19.5745   21.3783  -25.3368 C   0  0  0  0  0  0
  -17.5655   21.4408  -26.7772 C   0  0  0  0  0  0
  -19.8350   18.9347  -28.2357 C   0  0  0  0  0  0
  -21.0469   15.2876  -25.0539 C   0  0  0  0  0  0
  -19.9662   15.0983  -23.9636 C   0  0  0  0  0  0
  -21.4820   15.6004  -27.4827 C   0  0  0  0  0  0
  -20.9499   16.7018  -28.4338 C   0  0  2  0  0  0
  -18.1790   20.5435  -27.6009 N   0  0  0  0  0  0
  -18.3351   21.8139  -25.7069 N   0  0  0  0  0  0
  -21.1276   16.2562  -22.1072 N   0  0  0  0  0  0
  -20.5864   15.0253  -22.6218 N   0  0  0  0  0  0
  -20.4971   17.8935  -27.6939 N   0  0  0  0  0  0
  -20.6137   15.3288  -26.3247 N   0  0  0  0  0  0
  -22.5613   17.3860  -20.7544 O   0  0  0  0  0  0
  -20.4106   12.7320  -22.4014 O   0  0  0  0  0  0
  -20.2107   21.8703  -24.4108 O   0  0  0  0  0  0
  -16.4104   21.8201  -26.9502 O   0  0  0  0  0  0
  -19.6108   19.0137  -29.4439 O   0  0  0  0  0  0
  -22.2374   15.4206  -24.7602 O   0  0  0  0  0  0
  -26.5721   18.8368  -33.1674 H   0  0  0  0  0  0
  -26.5322   20.2870  -31.1786 H   0  0  0  0  0  0
  -24.9151   17.0231  -33.4237 H   0  0  0  0  0  0
  -24.8394   19.9419  -29.4077 H   0  0  0  0  0  0
  -22.9316   15.8127  -32.5823 H   0  0  0  0  0  0
  -21.2821   15.4091  -30.8047 H   0  0  0  0  0  0
  -22.9159   18.6532  -28.5177 H   0  0  0  0  0  0
  -22.8319   15.0825  -19.5177 H   0  0  0  0  0  0
  -21.8087   13.0211  -20.2443 H   0  0  0  0  0  0
  -21.0268   19.8707  -25.9331 H   0  0  0  0  0  0
  -19.2666   15.9352  -23.9971 H   0  0  0  0  0  0
  -19.3819   14.2066  -24.1998 H   0  0  0  0  0  0
  -21.6093   14.6647  -28.0327 H   0  0  0  0  0  0
  -22.4910   15.8805  -27.1677 H   0  0  0  0  0  0
  -20.0560   16.3039  -28.9215 H   0  0  0  0  0  0
  -17.6892   20.3153  -28.4562 H   0  0  0  0  0  0
  -17.9268   22.5101  -25.0997 H   0  0  0  0  0  0
  -20.9490   17.0369  -22.7210 H   0  0  0  0  0  0
  -20.6071   17.8559  -26.6923 H   0  0  0  0  0  0
  -19.6458   15.1088  -26.5165 H   0  0  0  0  0  0
  1  2  1  0  0  0
  1  3  2  0  0  0
  1 36  1  0  0  0
  2  4  2  0  0  0
  2 37  1  0  0  0
  3  8  1  0  0  0
  3 38  1  0  0  0
  4  9  1  0  0  0
  4 39  1  0  0  0
  5  6  2  0  0  0
  5  8  1  0  0  0
  5 40  1  0  0  0
  6 10  1  0  0  0
  6 41  1  0  0  0
  7  9  1  0  0  0
  7 10  2  0  0  0
  7 42  1  0  0  0
  8  9  2  0  0  0
 10 23  1  0  0  0
 11 12  2  0  0  0
 11 15  1  0  0  0
 11 43  1  0  0  0
 12 16  1  0  0  0
 12 44  1  0  0  0
 13 14  2  0  0  0
 13 17  1  0  0  0
 13 45  1  0  0  0
 14 19  1  0  0  0
 14 24  1  0  0  0
 15 26  1  0  0  0
 15 30  2  0  0  0
 16 27  1  0  0  0
 16 31  2  0  0  0
 17 25  1  0  0  0
 17 32  2  0  0  0
 18 24  1  0  0  0
 18 25  1  0  0  0
 18 33  2  0  0  0
 19 28  1  0  0  0
 19 34  2  0  0  0
 20 21  1  0  0  0
 20 29  1  0  0  0
 20 35  2  0  0  0
 21 27  1  0  0  0
 21 46  1  0  0  0
 21 47  1  0  0  0
 22 23  1  0  0  0
 22 29  1  0  0  0
 22 48  1  0  0  0
 22 49  1  0  0  0
 23 28  1  0  0  0
 23 50  1  0  0  0
 24 51  1  0  0  0
 25 52  1  0  0  0
 26 27  1  0  0  0
 26 53  1  0  0  0
 28 54  1  0  0  0
 29 55  1  0  0  0
M  END
> <s_i_glide_gridfile>
Cov2_glide-grid_1

> <i_i_glide_lignum>
69

> <i_i_glide_rotatable_bonds>
9

> <r_i_docking_score>
-7.92043

> <r_i_glide_ligand_efficiency>
-0.226298

> <r_i_glide_ligand_efficiency_sa>
-0.740236

> <r_i_glide_ligand_efficiency_ln>
-1.73871

> <r_i_glide_gscore>
-7.92043

> <r_i_glide_lipo>
-2.37751

> <r_i_glide_hbond>
-0.778388

> <r_i_glide_metal>
-0

> <r_i_glide_rewards>
-1.26006

> <r_i_glide_evdw>
-51.0932

> <r_i_glide_ecoul>
-9.9003

> <r_i_glide_erotb>
0.535245

> <r_i_glide_esite>
0

> <r_i_glide_emodel>
-88.2173

> <r_i_glide_energy>
-60.9935

> <r_i_glide_einternal>
4.63622

> <i_i_glide_confnum>
28

> <i_i_glide_posenum>
352

> <r_i_glide_eff_state_penalty>
0

$$$$
55
                    3D
 Structure written by MMmdl.
 60 63  0  0  1  0            999 V2000
  -22.5015   16.7253  -20.7734 C   0  0  0  0  0  0
  -23.2014   17.4994  -21.6925 C   0  0  0  0  0  0
  -21.6539   15.7069  -21.2024 C   0  0  0  0  0  0
  -23.0749   17.2610  -23.0583 C   0  0  0  0  0  0
  -20.6198   14.4398  -23.0566 C   0  0  0  0  0  0
  -20.4751   14.2209  -24.4231 C   0  0  0  0  0  0
  -22.0961   15.9432  -24.9103 C   0  0  0  0  0  0
  -21.4972   15.4435  -22.5850 C   0  0  0  0  0  0
  -22.2352   16.2204  -23.5285 C   0  0  0  0  0  0
  -21.2013   14.9640  -25.3570 C   0  0  0  0  0  0
  -23.5507   18.8272  -30.9056 C   0  0  0  0  0  0
  -19.3684   21.8928  -25.6553 C   0  0  0  0  0  0
  -25.1949   19.2961  -32.4020 C   0  0  0  0  0  0
  -23.7663   17.4847  -30.9088 C   0  0  0  0  0  0
  -18.3386   21.3863  -26.3867 C   0  0  0  0  0  0
  -24.8154   16.9898  -31.8090 C   0  0  0  0  0  0
  -17.0691   22.1107  -26.3056 C   0  0  0  0  0  0
  -18.1722   23.6271  -24.8015 C   0  0  0  0  0  0
  -22.9851   16.6093  -30.0303 C   0  0  0  0  0  0
  -18.4230   20.1518  -27.1719 C   0  0  0  0  0  0
  -23.2076   15.3007  -29.7573 C   0  0  0  0  0  0
  -19.3043   19.1598  -26.9105 C   0  0  0  0  0  0
  -22.3763   14.5322  -28.8685 C   0  0  0  0  0  0
  -19.3734   17.9396  -27.6747 C   0  0  0  0  0  0
  -19.6219   15.4561  -27.2525 C   0  0  0  0  0  0
  -20.9301   14.7356  -26.8521 C   0  0  2  0  0  0
  -24.2529   19.7345  -31.6467 N   0  0  0  0  0  0
  -19.2937   23.0165  -24.8859 N   0  0  0  0  0  0
  -25.4685   17.9630  -32.4791 N   0  0  0  0  0  0
  -17.0978   23.1945  -25.5055 N   0  0  0  0  0  0
  -18.0131   24.7419  -23.9729 N   0  0  0  0  0  0
  -19.6107   16.8829  -26.8853 N   0  0  0  0  0  0
  -21.9983   15.1800  -27.7508 N   0  0  0  0  0  0
  -25.1471   15.8270  -32.0017 O   0  0  0  0  0  0
  -16.0108   21.8039  -26.8411 O   0  0  0  0  0  0
  -22.0351   13.3816  -29.1367 O   0  0  0  0  0  0
  -19.2094   17.8781  -28.8918 O   0  0  0  0  0  0
  -22.6100   16.9239  -19.7169 H   0  0  0  0  0  0
  -23.8438   18.2946  -21.3423 H   0  0  0  0  0  0
  -21.1048   15.1180  -20.4818 H   0  0  0  0  0  0
  -23.6162   17.8707  -23.7678 H   0  0  0  0  0  0
  -20.0493   13.8560  -22.3492 H   0  0  0  0  0  0
  -19.7784   13.4648  -24.7583 H   0  0  0  0  0  0
  -22.6535   16.5421  -25.6150 H   0  0  0  0  0  0
  -22.7895   19.2459  -30.2615 H   0  0  0  0  0  0
  -20.3312   21.4030  -25.6586 H   0  0  0  0  0  0
  -25.7925   19.9679  -33.0126 H   0  0  0  0  0  0
  -22.1335   17.0737  -29.5447 H   0  0  0  0  0  0
  -17.7359   20.0253  -28.0020 H   0  0  0  0  0  0
  -24.0105   14.7361  -30.1987 H   0  0  0  0  0  0
  -19.9939   19.2264  -26.0810 H   0  0  0  0  0  0
  -18.8107   14.9579  -26.7244 H   0  0  0  0  0  0
  -19.4133   15.3117  -28.3160 H   0  0  0  0  0  0
  -20.7930   13.6569  -26.9726 H   0  0  0  0  0  0
  -26.1799   17.6215  -33.1020 H   0  0  0  0  0  0
  -16.2215   23.6761  -25.4012 H   0  0  0  0  0  0
  -18.7376   24.8802  -23.2864 H   0  0  0  0  0  0
  -17.0978   24.8755  -23.5603 H   0  0  0  0  0  0
  -19.7146   17.0678  -25.8986 H   0  0  0  0  0  0
  -22.3250   16.1246  -27.6237 H   0  0  0  0  0  0
  1  2  1  0  0  0
  1  3  2  0  0  0
  1 38  1  0  0  0
  2  4  2  0  0  0
  2 39  1  0  0  0
  3  8  1  0  0  0
  3 40  1  0  0  0
  4  9  1  0  0  0
  4 41  1  0  0  0
  5  6  2  0  0  0
  5  8  1  0  0  0
  5 42  1  0  0  0
  6 10  1  0  0  0
  6 43  1  0  0  0
  7  9  1  0  0  0
  7 10  2  0  0  0
  7 44  1  0  0  0
  8  9  2  0  0  0
 10 26  1  0  0  0
 11 14  2  0  0  0
 11 27  1  0  0  0
 11 45  1  0  0  0
 12 15  2  0  0  0
 12 28  1  0  0  0
 12 46  1  0  0  0
 13 27  2  0  0  0
 13 29  1  0  0  0
 13 47  1  0  0  0
 14 16  1  0  0  0
 14 19  1  0  0  0
 15 17  1  0  0  0
 15 20  1  0  0  0
 16 29  1  0  0  0
 16 34  2  0  0  0
 17 30  1  0  0  0
 17 35  2  0  0  0
 18 28  2  0  0  0
 18 30  1  0  0  0
 18 31  1  0  0  0
 19 21  2  0  0  0
 19 48  1  0  0  0
 20 22  2  0  0  0
 20 49  1  0  0  0
 21 23  1  0  0  0
 21 50  1  0  0  0
 22 24  1  0  0  0
 22 51  1  0  0  0
 23 33  1  0  0  0
 23 36  2  0  0  0
 24 32  1  0  0  0
 24 37  2  0  0  0
 25 26  1  0  0  0
 25 32  1  0  0  0
 25 52  1  0  0  0
 25 53  1  0  0  0
 26 33  1  0  0  0
 26 54  1  0  0  0
 29 55  1  0  0  0
 30 56  1  0  0  0
 31 57  1  0  0  0
 31 58  1  0  0  0
 32 59  1  0  0  0
 33 60  1  0  0  0
M  END
> <s_i_glide_gridfile>
Cov2_glide-grid_1

> <i_i_glide_lignum>
50

> <i_i_glide_rotatable_bonds>
10

> <r_i_docking_score>
-7.83558

> <r_i_glide_ligand_efficiency>
-0.211772

> <r_i_glide_ligand_efficiency_sa>
-0.705672

> <r_i_glide_ligand_efficiency_ln>
-1.69935

> <r_i_glide_gscore>
-7.83558

> <r_i_glide_lipo>
-3.11606

> <r_i_glide_hbond>
-0.356858

> <r_i_glide_metal>
-0

> <r_i_glide_rewards>
-0.627425

> <r_i_glide_evdw>
-52.3183

> <r_i_glide_ecoul>
-10.8088

> <r_i_glide_erotb>
0.659351

> <r_i_glide_esite>
-0.157347

> <r_i_glide_emodel>
-85.1168

> <r_i_glide_energy>
-63.1271

> <r_i_glide_einternal>
13.9977

> <i_i_glide_confnum>
51

> <i_i_glide_posenum>
370

> <r_i_glide_eff_state_penalty>
0

$$$$
81
                    3D
 Structure written by MMmdl.
 53 56  0  0  1  0            999 V2000
  -25.7628   17.7949  -32.3898 C   0  0  0  0  0  0
  -25.1683   19.0294  -32.1268 C   0  0  0  0  0  0
  -21.7236   15.4736  -22.3425 C   0  0  0  0  0  0
  -21.6950   15.4611  -23.7406 C   0  0  0  0  0  0
  -25.0876   16.6154  -32.0736 C   0  0  0  0  0  0
  -23.8900   19.0897  -31.5703 C   0  0  0  0  0  0
  -20.8500   14.6331  -21.6510 C   0  0  0  0  0  0
  -19.9555   13.8210  -23.6321 C   0  0  0  0  0  0
  -20.8006   14.6189  -24.4162 C   0  0  0  0  0  0
  -23.8203   16.6695  -31.4932 C   0  0  0  0  0  0
  -23.2086   17.9077  -31.2650 C   0  0  0  0  0  0
  -19.9105   21.6438  -25.7475 C   0  0  0  0  0  0
  -18.7102   23.1367  -24.5194 C   0  0  0  0  0  0
  -18.8631   21.2647  -26.5319 C   0  0  0  0  0  0
  -17.5682   21.8928  -26.2484 C   0  0  0  0  0  0
  -20.7110   14.5333  -25.8879 C   0  0  0  0  0  0
  -18.9627   20.2796  -27.6151 C   0  0  0  0  0  0
  -21.5137   15.1540  -26.7808 C   0  0  0  0  0  0
  -20.1260   19.8349  -28.1416 C   0  0  0  0  0  0
  -21.3024   15.0357  -28.2052 C   0  0  0  0  0  0
  -20.1895   18.8464  -29.1950 C   0  0  0  0  0  0
  -22.8656   15.5411  -31.1673 C   0  0  0  0  0  0
  -21.7941   17.7141  -30.7502 C   0  0  2  0  0  0
  -21.7543   16.2135  -30.3512 C   0  0  1  0  0  0
  -19.9714   13.8124  -22.2752 N   0  0  0  0  0  0
  -19.8409   22.5696  -24.7470 N   0  0  0  0  0  0
  -17.6090   22.8173  -25.2597 N   0  0  0  0  0  0
  -21.4295   18.6602  -29.6808 N   0  0  0  0  0  0
  -21.9497   15.9766  -28.9145 N   0  0  0  0  0  0
  -16.5012   21.6328  -26.8021 O   0  0  0  0  0  0
  -20.5571   14.1933  -28.7136 O   0  0  0  0  0  0
  -19.2126   18.2207  -29.6005 O   0  0  0  0  0  0
  -26.7419   17.7504  -32.8428 H   0  0  0  0  0  0
  -25.6926   19.9407  -32.3801 H   0  0  0  0  0  0
  -22.4034   16.1205  -21.8092 H   0  0  0  0  0  0
  -22.3646   16.1118  -24.2825 H   0  0  0  0  0  0
  -25.5549   15.6676  -32.2962 H   0  0  0  0  0  0
  -23.4278   20.0516  -31.4084 H   0  0  0  0  0  0
  -20.8407   14.6092  -20.5712 H   0  0  0  0  0  0
  -19.2422   13.1532  -24.0964 H   0  0  0  0  0  0
  -20.8892   21.2095  -25.8903 H   0  0  0  0  0  0
  -18.5876   23.8754  -23.7303 H   0  0  0  0  0  0
  -19.9008   13.9181  -26.2614 H   0  0  0  0  0  0
  -18.0355   19.8773  -28.0132 H   0  0  0  0  0  0
  -22.3319   15.7847  -26.4661 H   0  0  0  0  0  0
  -21.0774   20.2069  -27.7936 H   0  0  0  0  0  0
  -22.4524   15.1671  -32.1047 H   0  0  0  0  0  0
  -23.3140   14.6822  -30.6655 H   0  0  0  0  0  0
  -21.1206   17.8430  -31.6025 H   0  0  0  0  0  0
  -20.8025   15.7900  -30.6757 H   0  0  0  0  0  0
  -16.7252   23.2400  -25.0273 H   0  0  0  0  0  0
  -22.1821   19.2032  -29.2895 H   0  0  0  0  0  0
  -22.6019   16.5837  -28.4442 H   0  0  0  0  0  0
  1  2  1  0  0  0
  1  5  2  0  0  0
  1 33  1  0  0  0
  2  6  2  0  0  0
  2 34  1  0  0  0
  3  4  2  0  0  0
  3  7  1  0  0  0
  3 35  1  0  0  0
  4  9  1  0  0  0
  4 36  1  0  0  0
  5 10  1  0  0  0
  5 37  1  0  0  0
  6 11  1  0  0  0
  6 38  1  0  0  0
  7 25  2  0  0  0
  7 39  1  0  0  0
  8  9  2  0  0  0
  8 25  1  0  0  0
  8 40  1  0  0  0
  9 16  1  0  0  0
 10 11  2  0  0  0
 10 22  1  0  0  0
 11 23  1  0  0  0
 12 14  2  0  0  0
 12 26  1  0  0  0
 12 41  1  0  0  0
 13 26  2  0  0  0
 13 27  1  0  0  0
 13 42  1  0  0  0
 14 15  1  0  0  0
 14 17  1  0  0  0
 15 27  1  0  0  0
 15 30  2  0  0  0
 16 18  2  0  0  0
 16 43  1  0  0  0
 17 19  2  0  0  0
 17 44  1  0  0  0
 18 20  1  0  0  0
 18 45  1  0  0  0
 19 21  1  0  0  0
 19 46  1  0  0  0
 20 29  1  0  0  0
 20 31  2  0  0  0
 21 28  1  0  0  0
 21 32  2  0  0  0
 22 24  1  0  0  0
 22 47  1  0  0  0
 22 48  1  0  0  0
 23 24  1  0  0  0
 23 28  1  0  0  0
 23 49  1  0  0  0
 24 29  1  0  0  0
 24 50  1  0  0  0
 27 51  1  0  0  0
 28 52  1  0  0  0
 29 53  1  0  0  0
M  END
> <s_i_glide_gridfile>
Cov2_glide-grid_1

> <i_i_glide_lignum>
74

> <i_i_glide_rotatable_bonds>
8

> <r_i_docking_score>
-7.83531

> <r_i_glide_ligand_efficiency>
-0.244853

> <r_i_glide_ligand_efficiency_sa>
-0.777361

> <r_i_glide_ligand_efficiency_ln>
-1.75454

> <r_i_glide_gscore>
-7.83531

> <r_i_glide_lipo>
-3.43641

> <r_i_glide_hbond>
-0.511477

> <r_i_glide_metal>
-0

> <r_i_glide_rewards>
-0.86518

> <r_i_glide_evdw>
-50.9534

> <r_i_glide_ecoul>
-6.84002

> <r_i_glide_erotb>
0.65199

> <r_i_glide_esite>
-0.100554

> <r_i_glide_emodel>
-84.3988

> <r_i_glide_energy>
-57.7934

> <r_i_glide_einternal>
2.24205

> <i_i_glide_confnum>
59

> <i_i_glide_posenum>
344

> <r_i_glide_eff_state_penalty>
0

$$$$
77
                    3D
 Structure written by MMmdl.
 58 61  0  0  1  0            999 V2000
  -28.0097   20.0803  -31.0410 C   0  0  0  0  0  0
  -27.1789   20.6280  -30.0691 C   0  0  0  0  0  0
  -27.5704   19.0230  -31.8340 C   0  0  0  0  0  0
  -25.8911   20.1332  -29.8783 C   0  0  0  0  0  0
  -25.7874   17.4217  -32.4473 C   0  0  0  0  0  0
  -24.4931   16.9421  -32.2740 C   0  0  0  0  0  0
  -24.1044   18.5406  -30.5104 C   0  0  0  0  0  0
  -26.2675   18.4942  -31.6622 C   0  0  0  0  0  0
  -25.4109   19.0621  -30.6724 C   0  0  0  0  0  0
  -23.6438   17.4857  -31.3093 C   0  0  0  0  0  0
  -22.6388   15.7822  -26.2336 C   0  0  0  0  0  0
  -20.8737   14.1411  -26.0324 C   0  0  0  0  0  0
  -19.2114   20.2400  -26.5577 C   0  0  0  0  0  0
  -17.7893   21.9148  -25.9617 C   0  0  0  0  0  0
  -21.8656   14.8414  -26.8523 C   0  0  0  0  0  0
  -19.2207   20.5580  -27.8791 C   0  0  0  0  0  0
  -20.7564   14.4695  -24.7283 C   0  0  0  0  0  0
  -22.5115   16.1231  -24.8192 C   0  0  0  0  0  0
  -18.4163   21.7197  -28.2774 C   0  0  0  0  0  0
  -20.0286   19.7783  -28.8225 C   0  0  0  0  0  0
  -20.0127   19.8464  -30.1758 C   0  0  0  0  0  0
  -21.9496   14.5368  -28.2736 C   0  0  0  0  0  0
  -20.8810   19.0791  -31.0350 C   0  0  0  0  0  0
  -19.7675   13.8225  -23.7807 C   0  0  0  0  0  0
  -22.1583   15.5485  -30.5390 C   0  0  0  0  0  0
  -22.2053   16.9497  -31.2022 C   0  0  2  0  0  0
  -18.5009   20.9059  -25.6020 N   0  0  0  0  0  0
  -17.7321   22.2969  -27.2661 N   0  0  0  0  0  0
  -21.5488   15.4306  -24.1559 N   0  0  0  0  0  0
  -22.2584   15.5750  -29.0755 N   0  0  0  0  0  0
  -21.2383   17.8653  -30.5729 N   0  0  0  0  0  0
  -23.2094   16.9521  -24.2431 O   0  0  0  0  0  0
  -18.3483   22.2210  -29.3932 O   0  0  0  0  0  0
  -21.6835   13.4189  -28.7194 O   0  0  0  0  0  0
  -21.2850   19.5386  -32.1008 O   0  0  0  0  0  0
  -29.0045   20.4785  -31.1798 H   0  0  0  0  0  0
  -27.5347   21.4462  -29.4598 H   0  0  0  0  0  0
  -28.2199   18.6017  -32.5871 H   0  0  0  0  0  0
  -25.2503   20.5660  -29.1240 H   0  0  0  0  0  0
  -26.4246   16.9873  -33.2027 H   0  0  0  0  0  0
  -24.1454   16.1434  -32.9131 H   0  0  0  0  0  0
  -23.4669   18.9800  -29.7583 H   0  0  0  0  0  0
  -23.3934   16.3287  -26.7800 H   0  0  0  0  0  0
  -20.2377   13.3786  -26.4615 H   0  0  0  0  0  0
  -19.7930   19.4009  -26.2013 H   0  0  0  0  0  0
  -17.2151   22.4908  -25.2397 H   0  0  0  0  0  0
  -20.7185   19.0745  -28.3721 H   0  0  0  0  0  0
  -19.3646   20.5167  -30.7167 H   0  0  0  0  0  0
  -19.0498   14.5578  -23.4132 H   0  0  0  0  0  0
  -20.2840   13.3798  -22.9280 H   0  0  0  0  0  0
  -19.2104   13.0302  -24.2815 H   0  0  0  0  0  0
  -22.9340   14.8992  -30.9502 H   0  0  0  0  0  0
  -21.2068   15.0822  -30.8015 H   0  0  0  0  0  0
  -21.8581   16.8168  -32.2313 H   0  0  0  0  0  0
  -17.2109   23.1196  -27.5273 H   0  0  0  0  0  0
  -21.4541   15.6764  -23.1835 H   0  0  0  0  0  0
  -22.5069   16.4574  -28.6556 H   0  0  0  0  0  0
  -20.7075   17.4810  -29.8068 H   0  0  0  0  0  0
  1  2  1  0  0  0
  1  3  2  0  0  0
  1 36  1  0  0  0
  2  4  2  0  0  0
  2 37  1  0  0  0
  3  8  1  0  0  0
  3 38  1  0  0  0
  4  9  1  0  0  0
  4 39  1  0  0  0
  5  6  2  0  0  0
  5  8  1  0  0  0
  5 40  1  0  0  0
  6 10  1  0  0  0
  6 41  1  0  0  0
  7  9  1  0  0  0
  7 10  2  0  0  0
  7 42  1  0  0  0
  8  9  2  0  0  0
 10 26  1  0  0  0
 11 15  2  0  0  0
 11 18  1  0  0  0
 11 43  1  0  0  0
 12 15  1  0  0  0
 12 17  2  0  0  0
 12 44  1  0  0  0
 13 16  2  0  0  0
 13 27  1  0  0  0
 13 45  1  0  0  0
 14 27  2  0  0  0
 14 28  1  0  0  0
 14 46  1  0  0  0
 15 22  1  0  0  0
 16 19  1  0  0  0
 16 20  1  0  0  0
 17 24  1  0  0  0
 17 29  1  0  0  0
 18 29  1  0  0  0
 18 32  2  0  0  0
 19 28  1  0  0  0
 19 33  2  0  0  0
 20 21  2  0  0  0
 20 47  1  0  0  0
 21 23  1  0  0  0
 21 48  1  0  0  0
 22 30  1  0  0  0
 22 34  2  0  0  0
 23 31  1  0  0  0
 23 35  2  0  0  0
 24 49  1  0  0  0
 24 50  1  0  0  0
 24 51  1  0  0  0
 25 26  1  0  0  0
 25 30  1  0  0  0
 25 52  1  0  0  0
 25 53  1  0  0  0
 26 31  1  0  0  0
 26 54  1  0  0  0
 28 55  1  0  0  0
 29 56  1  0  0  0
 30 57  1  0  0  0
 31 58  1  0  0  0
M  END
> <s_i_glide_gridfile>
Cov2_glide-grid_1

> <i_i_glide_lignum>
83

> <i_i_glide_rotatable_bonds>
9

> <r_i_docking_score>
-7.83208

> <r_i_glide_ligand_efficiency>
-0.223774

> <r_i_glide_ligand_efficiency_sa>
-0.731978

> <r_i_glide_ligand_efficiency_ln>
-1.71931

> <r_i_glide_gscore>
-7.83208

> <r_i_glide_lipo>
-3.2625

> <r_i_glide_hbond>
-0.61404

> <r_i_glide_metal>
-0

> <r_i_glide_rewards>
-0.927666

> <r_i_glide_evdw>
-47.4664

> <r_i_glide_ecoul>
-8.63992

> <r_i_glide_erotb>
0.641429

> <r_i_glide_esite>
0

> <r_i_glide_emodel>
-79.8064

> <r_i_glide_energy>
-56.1063

> <r_i_glide_einternal>
10.0886

> <i_i_glide_confnum>
111

> <i_i_glide_posenum>
245

> <r_i_glide_eff_state_penalty>
0

$$$$
13
                    3D
 Structure written by MMmdl.
 53 56  0  0  1  0            999 V2000
  -25.8889   17.4810  -32.2562 C   0  0  0  0  0  0
  -25.3389   18.7371  -32.0030 C   0  0  0  0  0  0
  -25.1464   16.3267  -32.0043 C   0  0  0  0  0  0
  -24.0409   18.8421  -31.5027 C   0  0  0  0  0  0
  -23.8579   16.4263  -31.4791 C   0  0  0  0  0  0
  -23.2968   17.6859  -31.2497 C   0  0  0  0  0  0
  -19.9123   13.5142  -23.7520 C   0  0  0  0  0  0
  -20.7143   14.2011  -21.7379 C   0  0  0  0  0  0
  -20.7073   14.3360  -24.4864 C   0  0  0  0  0  0
  -19.3702   20.5733  -27.7594 C   0  0  0  0  0  0
  -18.8673   20.0518  -26.6284 C   0  0  0  0  0  0
  -21.6109   15.2185  -23.7357 C   0  0  0  0  0  0
  -18.4120   21.5360  -28.2710 C   0  0  0  0  0  0
  -20.6081   14.3233  -25.9498 C   0  0  0  0  0  0
  -21.4085   14.9523  -26.8394 C   0  0  0  0  0  0
  -21.1625   14.8953  -28.2612 C   0  0  0  0  0  0
  -20.7228   19.5042  -29.6765 C   0  0  0  0  0  0
  -22.8381   15.3401  -31.2130 C   0  0  0  0  0  0
  -21.8694   17.5460  -30.7575 C   0  0  2  0  0  0
  -21.7492   16.0450  -30.3943 C   0  0  1  0  0  0
  -19.4240   19.0601  -25.6281 C   0  0  0  0  0  0
  -20.7328   20.4139  -28.4356 C   0  0  0  0  0  0
  -19.9293   13.4210  -22.3888 N   0  0  0  0  0  0
  -21.5289   15.0761  -22.3935 N   0  0  0  0  0  0
  -17.6250   20.6212  -26.4009 N   0  0  0  0  0  0
  -21.9163   15.7593  -28.9609 N   0  0  0  0  0  0
  -21.5751   18.4698  -29.6503 N   0  0  0  0  0  0
  -22.4108   16.0343  -24.1800 O   0  0  0  0  0  0
  -18.5030   22.2209  -29.2867 O   0  0  0  0  0  0
  -20.3058   14.1714  -28.7754 O   0  0  0  0  0  0
  -20.0107   19.7639  -30.6452 O   0  0  0  0  0  0
  -17.3655   21.5231  -27.4597 O   0  0  0  0  0  0
  -26.8875   17.4030  -32.6602 H   0  0  0  0  0  0
  -25.9131   19.6284  -32.2107 H   0  0  0  0  0  0
  -25.5861   15.3673  -32.2270 H   0  0  0  0  0  0
  -23.6154   19.8196  -31.3302 H   0  0  0  0  0  0
  -19.2153   12.8579  -24.2547 H   0  0  0  0  0  0
  -20.7595   14.1835  -20.6521 H   0  0  0  0  0  0
  -19.7888   13.7405  -26.3594 H   0  0  0  0  0  0
  -22.2560   15.5428  -26.5269 H   0  0  0  0  0  0
  -22.4212   15.0230  -32.1692 H   0  0  0  0  0  0
  -23.2292   14.4388  -30.7385 H   0  0  0  0  0  0
  -21.2179   17.7242  -31.6176 H   0  0  0  0  0  0
  -20.7849   15.6769  -30.7464 H   0  0  0  0  0  0
  -20.4183   18.7258  -25.9235 H   0  0  0  0  0  0
  -18.7874   18.1800  -25.5595 H   0  0  0  0  0  0
  -19.5002   19.5117  -24.6385 H   0  0  0  0  0  0
  -21.1171   21.3877  -28.7402 H   0  0  0  0  0  0
  -21.4430   20.0399  -27.6975 H   0  0  0  0  0  0
  -22.1333   15.6910  -21.8771 H   0  0  0  0  0  0
  -17.3961   21.1223  -25.5522 H   0  0  0  0  0  0
  -22.6760   16.2280  -28.4912 H   0  0  0  0  0  0
  -22.0947   18.3121  -28.8015 H   0  0  0  0  0  0
  1  2  1  0  0  0
  1  3  2  0  0  0
  1 33  1  0  0  0
  2  4  2  0  0  0
  2 34  1  0  0  0
  3  5  1  0  0  0
  3 35  1  0  0  0
  4  6  1  0  0  0
  4 36  1  0  0  0
  5  6  2  0  0  0
  5 18  1  0  0  0
  6 19  1  0  0  0
  7  9  2  0  0  0
  7 23  1  0  0  0
  7 37  1  0  0  0
  8 23  2  0  0  0
  8 24  1  0  0  0
  8 38  1  0  0  0
  9 12  1  0  0  0
  9 14  1  0  0  0
 10 11  2  0  0  0
 10 13  1  0  0  0
 10 22  1  0  0  0
 11 21  1  0  0  0
 11 25  1  0  0  0
 12 24  1  0  0  0
 12 28  2  0  0  0
 13 29  2  0  0  0
 13 32  1  0  0  0
 14 15  2  0  0  0
 14 39  1  0  0  0
 15 16  1  0  0  0
 15 40  1  0  0  0
 16 26  1  0  0  0
 16 30  2  0  0  0
 17 22  1  0  0  0
 17 27  1  0  0  0
 17 31  2  0  0  0
 18 20  1  0  0  0
 18 41  1  0  0  0
 18 42  1  0  0  0
 19 20  1  0  0  0
 19 27  1  0  0  0
 19 43  1  0  0  0
 20 26  1  0  0  0
 20 44  1  0  0  0
 21 45  1  0  0  0
 21 46  1  0  0  0
 21 47  1  0  0  0
 22 48  1  0  0  0
 22 49  1  0  0  0
 24 50  1  0  0  0
 25 32  1  0  0  0
 25 51  1  0  0  0
 26 52  1  0  0  0
 27 53  1  0  0  0
M  END
> <s_i_glide_gridfile>
Cov2_glide-grid_1

> <i_i_glide_lignum>
12

> <i_i_glide_rotatable_bonds>
8

> <r_i_docking_score>
-7.8251

> <r_i_glide_ligand_efficiency>
-0.244534

> <r_i_glide_ligand_efficiency_sa>
-0.776348

> <r_i_glide_ligand_efficiency_ln>
-1.75225

> <r_i_glide_gscore>
-7.8251

> <r_i_glide_lipo>
-3.14429

> <r_i_glide_hbond>
-0.586481

> <r_i_glide_metal>
-0

> <r_i_glide_rewards>
-1.17858

> <r_i_glide_evdw>
-47.9175

> <r_i_glide_ecoul>
-8.36977

> <r_i_glide_erotb>
0.735594

> <r_i_glide_esite>
0

> <r_i_glide_emodel>
-80.1609

> <r_i_glide_energy>
-56.2872

> <r_i_glide_einternal>
5.2668

> <i_i_glide_confnum>
84

> <i_i_glide_posenum>
101

> <r_i_glide_eff_state_penalty>
0

$$$$
57
                    3D
 Structure written by MMmdl.
 58 61  0  0  1  0            999 V2000
  -17.1480   23.0206  -25.8045 C   0  0  0  0  0  0
  -16.7112   22.2209  -26.8560 C   0  0  0  0  0  0
  -18.2622   22.6508  -25.0575 C   0  0  0  0  0  0
  -17.3718   21.0368  -27.1769 C   0  0  0  0  0  0
  -20.0625   21.0293  -24.5868 C   0  0  0  0  0  0
  -20.7197   19.8414  -24.8920 C   0  0  0  0  0  0
  -19.1890   19.4142  -26.7062 C   0  0  0  0  0  0
  -18.9505   21.4458  -25.3479 C   0  0  0  0  0  0
  -18.4985   20.6218  -26.4240 C   0  0  0  0  0  0
  -20.2949   19.0225  -25.9417 C   0  0  0  0  0  0
  -23.6105   15.8767  -20.3774 C   0  0  0  0  0  0
  -24.2542   14.8656  -19.7423 C   0  0  0  0  0  0
  -21.0762   13.0231  -29.4272 C   0  0  0  0  0  0
  -22.2454   13.5238  -29.8798 C   0  0  0  0  0  0
  -21.7452   14.4465  -20.7001 C   0  0  0  0  0  0
  -22.2660   15.6755  -20.9194 C   0  0  0  0  0  0
  -23.6785   13.5314  -19.6031 C   0  0  0  0  0  0
  -19.9018   13.8402  -29.2021 C   0  0  0  0  0  0
  -22.4476   14.9266  -30.1865 C   0  0  0  0  0  0
  -21.7132   16.7178  -23.1443 C   0  0  0  0  0  0
  -21.3845   17.9519  -28.7654 C   0  0  0  0  0  0
  -21.4925   16.7813  -21.6264 C   0  0  0  0  0  0
  -21.3764   17.1910  -30.1153 C   0  0  0  0  0  0
  -20.6216   16.5435  -25.3669 C   0  0  0  0  0  0
  -21.0867   17.7349  -26.2451 C   0  0  2  0  0  0
  -22.4074   13.4212  -20.0752 N   0  0  0  0  0  0
  -20.0991   15.1513  -29.5017 N   0  0  0  0  0  0
  -21.3444   15.7166  -29.9464 N   0  0  0  0  0  0
  -20.6154   16.7470  -23.9160 N   0  0  0  0  0  0
  -21.0962   17.2718  -27.6398 N   0  0  0  0  0  0
  -24.2821   12.5668  -19.1496 O   0  0  0  0  0  0
  -18.8213   13.4211  -28.8026 O   0  0  0  0  0  0
  -23.5230   15.3356  -30.6196 O   0  0  0  0  0  0
  -22.8507   16.6213  -23.6046 O   0  0  0  0  0  0
  -21.6299   19.1566  -28.7663 O   0  0  0  0  0  0
  -16.6156   23.9289  -25.5582 H   0  0  0  0  0  0
  -15.8543   22.5315  -27.4324 H   0  0  0  0  0  0
  -18.5878   23.2688  -24.2320 H   0  0  0  0  0  0
  -17.0258   20.4274  -27.9997 H   0  0  0  0  0  0
  -20.4033   21.6421  -23.7628 H   0  0  0  0  0  0
  -21.5736   19.5517  -24.2981 H   0  0  0  0  0  0
  -18.8451   18.7956  -27.5251 H   0  0  0  0  0  0
  -24.0840   16.8426  -20.4657 H   0  0  0  0  0  0
  -25.2415   15.0255  -19.3356 H   0  0  0  0  0  0
  -20.9960   11.9660  -29.2264 H   0  0  0  0  0  0
  -23.0857   12.8593  -30.0295 H   0  0  0  0  0  0
  -20.7639   14.1403  -21.0372 H   0  0  0  0  0  0
  -21.8010   17.7594  -21.2559 H   0  0  0  0  0  0
  -20.4301   16.6885  -21.3913 H   0  0  0  0  0  0
  -22.2666   17.5015  -30.6656 H   0  0  0  0  0  0
  -20.5244   17.5210  -30.7113 H   0  0  0  0  0  0
  -19.6106   16.2646  -25.6578 H   0  0  0  0  0  0
  -21.2282   15.6620  -25.5884 H   0  0  0  0  0  0
  -22.1343   17.9399  -26.0069 H   0  0  0  0  0  0
  -22.0105   12.4895  -20.0017 H   0  0  0  0  0  0
  -19.3666   15.8428  -29.4278 H   0  0  0  0  0  0
  -19.7162   16.9043  -23.4808 H   0  0  0  0  0  0
  -21.0507   16.2695  -27.7466 H   0  0  0  0  0  0
  1  2  1  0  0  0
  1  3  2  0  0  0
  1 36  1  0  0  0
  2  4  2  0  0  0
  2 37  1  0  0  0
  3  8  1  0  0  0
  3 38  1  0  0  0
  4  9  1  0  0  0
  4 39  1  0  0  0
  5  6  2  0  0  0
  5  8  1  0  0  0
  5 40  1  0  0  0
  6 10  1  0  0  0
  6 41  1  0  0  0
  7  9  1  0  0  0
  7 10  2  0  0  0
  7 42  1  0  0  0
  8  9  2  0  0  0
 10 25  1  0  0  0
 11 12  2  0  0  0
 11 16  1  0  0  0
 11 43  1  0  0  0
 12 17  1  0  0  0
 12 44  1  0  0  0
 13 14  2  0  0  0
 13 18  1  0  0  0
 13 45  1  0  0  0
 14 19  1  0  0  0
 14 46  1  0  0  0
 15 16  2  0  0  0
 15 26  1  0  0  0
 15 47  1  0  0  0
 16 22  1  0  0  0
 17 26  1  0  0  0
 17 31  2  0  0  0
 18 27  1  0  0  0
 18 32  2  0  0  0
 19 28  1  0  0  0
 19 33  2  0  0  0
 20 22  1  0  0  0
 20 29  1  0  0  0
 20 34  2  0  0  0
 21 23  1  0  0  0
 21 30  1  0  0  0
 21 35  2  0  0  0
 22 48  1  0  0  0
 22 49  1  0  0  0
 23 28  1  0  0  0
 23 50  1  0  0  0
 23 51  1  0  0  0
 24 25  1  0  0  0
 24 29  1  0  0  0
 24 52  1  0  0  0
 24 53  1  0  0  0
 25 30  1  0  0  0
 25 54  1  0  0  0
 26 55  1  0  0  0
 27 28  1  0  0  0
 27 56  1  0  0  0
 29 57  1  0  0  0
 30 58  1  0  0  0
M  END
> <s_i_glide_gridfile>
Cov2_glide-grid_1

> <i_i_glide_lignum>
53

> <i_i_glide_rotatable_bonds>
10

> <r_i_docking_score>
-7.75467

> <r_i_glide_ligand_efficiency>
-0.221562

> <r_i_glide_ligand_efficiency_sa>
-0.724744

> <r_i_glide_ligand_efficiency_ln>
-1.70232

> <r_i_glide_gscore>
-7.75467

> <r_i_glide_lipo>
-3.2616

> <r_i_glide_hbond>
-0.58167

> <r_i_glide_metal>
-0

> <r_i_glide_rewards>
-0.395917

> <r_i_glide_evdw>
-53.3432

> <r_i_glide_ecoul>
-9.79377

> <r_i_glide_erotb>
0.631602

> <r_i_glide_esite>
-0.0108605

> <r_i_glide_emodel>
-87.5695

> <r_i_glide_energy>
-63.137

> <r_i_glide_einternal>
8.2765

> <i_i_glide_confnum>
36

> <i_i_glide_posenum>
220

> <r_i_glide_eff_state_penalty>
0

$$$$
30
                    3D
 Structure written by MMmdl.
 58 62  0  0  1  0            999 V2000
  -27.8224   19.1202  -32.5049 C   0  0  0  0  0  0
  -27.6045   20.1238  -31.5664 C   0  0  0  0  0  0
  -26.8191   18.2011  -32.8027 C   0  0  0  0  0  0
  -26.3778   20.2300  -30.9169 C   0  0  0  0  0  0
  -24.5149   17.3778  -32.4695 C   0  0  0  0  0  0
  -23.2662   17.5256  -31.8772 C   0  0  0  0  0  0
  -24.0571   19.4294  -30.6128 C   0  0  0  0  0  0
  -23.5180   22.2225  -33.0668 C   0  0  0  0  0  0
  -25.5592   18.2838  -32.1682 C   0  0  0  0  0  0
  -25.3317   19.3207  -31.2145 C   0  0  0  0  0  0
  -23.0245   18.5561  -30.9631 C   0  0  0  0  0  0
  -24.0399   23.3108  -33.7410 C   0  0  0  0  0  0
  -22.2468   22.6065  -32.5963 C   0  0  0  0  0  0
  -22.7588   13.4024  -28.4484 C   0  0  0  0  0  0
  -22.1036   13.8207  -27.3448 C   0  0  0  0  0  0
  -23.2122   25.5497  -34.2126 C   0  0  0  0  0  0
  -24.3642   25.7357  -34.8821 C   0  0  0  0  0  0
  -25.3343   23.5722  -34.3847 C   0  0  0  0  0  0
  -22.3578   13.7619  -29.7868 C   0  0  0  0  0  0
  -20.9614   14.7043  -27.3778 C   0  0  0  0  0  0
  -21.3837   21.7886  -31.7893 C   0  0  0  0  0  0
  -19.9196   17.3865  -29.2032 C   0  0  0  0  0  0
  -19.4320   15.9623  -28.8844 C   0  0  0  0  0  0
  -20.6849   19.4222  -31.4715 C   0  0  0  0  0  0
  -21.6204   18.7822  -30.4015 C   0  0  2  0  0  0
  -22.0025   23.8640  -32.9068 N   0  0  0  0  0  0
  -23.0540   24.2833  -33.6232 N   0  0  0  0  0  0
  -25.3543   24.7953  -34.9889 N   0  0  0  0  0  0
  -21.2317   14.5223  -29.8160 N   0  0  0  0  0  0
  -20.5503   15.0243  -28.6507 N   0  0  0  0  0  0
  -21.3055   20.5183  -32.2156 N   0  0  0  0  0  0
  -21.0839   17.5359  -29.8578 N   0  0  0  0  0  0
  -26.3187   22.8382  -34.4215 O   0  0  0  0  0  0
  -22.9603   13.4216  -30.8012 O   0  0  0  0  0  0
  -20.4456   15.1248  -26.3426 O   0  0  0  0  0  0
  -20.8097   22.2211  -30.7885 O   0  0  0  0  0  0
  -19.2037   18.3418  -28.9165 O   0  0  0  0  0  0
  -28.7768   19.0533  -33.0056 H   0  0  0  0  0  0
  -28.3912   20.8296  -31.3438 H   0  0  0  0  0  0
  -26.9945   17.4232  -33.5332 H   0  0  0  0  0  0
  -26.2120   21.0186  -30.1966 H   0  0  0  0  0  0
  -24.6834   16.5897  -33.1906 H   0  0  0  0  0  0
  -22.4726   16.8471  -32.1572 H   0  0  0  0  0  0
  -23.8806   20.2327  -29.9110 H   0  0  0  0  0  0
  -24.0105   21.2695  -32.9177 H   0  0  0  0  0  0
  -23.6028   12.7346  -28.3510 H   0  0  0  0  0  0
  -22.4177   13.4810  -26.3722 H   0  0  0  0  0  0
  -22.4202   26.2786  -34.1050 H   0  0  0  0  0  0
  -24.6265   26.6560  -35.3868 H   0  0  0  0  0  0
  -18.7724   15.6114  -29.6764 H   0  0  0  0  0  0
  -18.8119   16.0426  -27.9979 H   0  0  0  0  0  0
  -19.7440   19.7536  -31.0269 H   0  0  0  0  0  0
  -20.4142   18.6631  -32.2056 H   0  0  0  0  0  0
  -21.7045   19.4794  -29.5631 H   0  0  0  0  0  0
  -26.2028   24.9897  -35.5005 H   0  0  0  0  0  0
  -20.8337   14.8728  -30.6744 H   0  0  0  0  0  0
  -21.7217   20.2900  -33.1040 H   0  0  0  0  0  0
  -21.7135   16.7475  -29.8891 H   0  0  0  0  0  0
  1  2  1  0  0  0
  1  3  2  0  0  0
  1 38  1  0  0  0
  2  4  2  0  0  0
  2 39  1  0  0  0
  3  9  1  0  0  0
  3 40  1  0  0  0
  4 10  1  0  0  0
  4 41  1  0  0  0
  5  6  2  0  0  0
  5  9  1  0  0  0
  5 42  1  0  0  0
  6 11  1  0  0  0
  6 43  1  0  0  0
  7 10  1  0  0  0
  7 11  2  0  0  0
  7 44  1  0  0  0
  8 12  2  0  0  0
  8 13  1  0  0  0
  8 45  1  0  0  0
  9 10  2  0  0  0
 11 25  1  0  0  0
 12 18  1  0  0  0
 12 27  1  0  0  0
 13 21  1  0  0  0
 13 26  2  0  0  0
 14 15  2  0  0  0
 14 19  1  0  0  0
 14 46  1  0  0  0
 15 20  1  0  0  0
 15 47  1  0  0  0
 16 17  2  0  0  0
 16 27  1  0  0  0
 16 48  1  0  0  0
 17 28  1  0  0  0
 17 49  1  0  0  0
 18 28  1  0  0  0
 18 33  2  0  0  0
 19 29  1  0  0  0
 19 34  2  0  0  0
 20 30  1  0  0  0
 20 35  2  0  0  0
 21 31  1  0  0  0
 21 36  2  0  0  0
 22 23  1  0  0  0
 22 32  1  0  0  0
 22 37  2  0  0  0
 23 30  1  0  0  0
 23 50  1  0  0  0
 23 51  1  0  0  0
 24 25  1  0  0  0
 24 31  1  0  0  0
 24 52  1  0  0  0
 24 53  1  0  0  0
 25 32  1  0  0  0
 25 54  1  0  0  0
 26 27  1  0  0  0
 28 55  1  0  0  0
 29 30  1  0  0  0
 29 56  1  0  0  0
 31 57  1  0  0  0
 32 58  1  0  0  0
M  END
> <s_i_glide_gridfile>
Cov2_glide-grid_1

> <i_i_glide_lignum>
6

> <i_i_glide_rotatable_bonds>
9

> <r_i_docking_score>
-7.75268

> <r_i_glide_ligand_efficiency>
-0.209532

> <r_i_glide_ligand_efficiency_sa>
-0.698206

> <r_i_glide_ligand_efficiency_ln>
-1.68137

> <r_i_glide_gscore>
-7.75268

> <r_i_glide_lipo>
-3.36727

> <r_i_glide_hbond>
-0.377752

> <r_i_glide_metal>
-0

> <r_i_glide_rewards>
-0.765905

> <r_i_glide_evdw>
-54.853

> <r_i_glide_ecoul>
-6.59051

> <r_i_glide_erotb>
0.490939

> <r_i_glide_esite>
-0.00145628

> <r_i_glide_emodel>
-83.2125

> <r_i_glide_energy>
-61.4435

> <r_i_glide_einternal>
12.7976

> <i_i_glide_confnum>
96

> <i_i_glide_posenum>
84

> <r_i_glide_eff_state_penalty>
0

$$$$
5
                    3D
 Structure written by MMmdl.
 53 55  0  0  1  0            999 V2000
  -26.1042   19.1162  -32.4016 C   0  0  0  0  0  0
  -25.8390   19.8990  -31.2844 C   0  0  0  0  0  0
  -25.3646   17.9666  -32.6558 C   0  0  0  0  0  0
  -24.8285   19.5389  -30.3959 C   0  0  0  0  0  0
  -23.5513   16.4114  -32.0019 C   0  0  0  0  0  0
  -22.5759   16.0243  -31.0847 C   0  0  0  0  0  0
  -23.0568   17.9533  -29.7183 C   0  0  0  0  0  0
  -24.3264   17.5739  -31.7765 C   0  0  0  0  0  0
  -24.0617   18.3686  -30.6227 C   0  0  0  0  0  0
  -22.3316   16.7739  -29.9314 C   0  0  0  0  0  0
  -19.6103   21.7383  -25.6310 C   0  0  0  0  0  0
  -18.4087   23.4200  -24.6823 C   0  0  0  0  0  0
  -18.6105   21.3335  -26.4631 C   0  0  0  0  0  0
  -17.3464   22.0691  -26.3803 C   0  0  0  0  0  0
  -18.7341   20.2332  -27.4193 C   0  0  0  0  0  0
  -19.6831   19.2748  -27.3485 C   0  0  0  0  0  0
  -20.4646   14.5262  -23.4331 C   0  0  0  0  0  0
  -20.2808   14.4894  -24.7731 C   0  0  0  0  0  0
  -19.8449   18.2477  -28.3511 C   0  0  0  0  0  0
  -19.4489   14.1427  -22.4902 C   0  0  0  0  0  0
  -21.3091   14.9127  -25.6907 C   0  0  0  0  0  0
  -21.8660   15.0932  -28.1052 C   0  0  0  0  0  0
  -21.2838   16.2815  -28.9184 C   0  0  2  0  0  0
  -19.5213   22.7803  -24.7567 N   0  0  0  0  0  0
  -17.3510   23.0753  -25.4755 N   0  0  0  0  0  0
  -18.2282   14.6205  -22.7211 N   0  0  0  0  0  0
  -21.0230   14.6629  -26.9800 N   0  0  0  0  0  0
  -20.7904   17.3477  -28.0327 N   0  0  0  0  0  0
  -16.3309   21.8212  -27.0247 O   0  0  0  0  0  0
  -19.2137   18.2206  -29.4056 O   0  0  0  0  0  0
  -19.6827   13.4226  -21.5277 O   0  0  0  0  0  0
  -22.3393   15.4853  -25.3255 O   0  0  0  0  0  0
  -26.8899   19.4071  -33.0856 H   0  0  0  0  0  0
  -26.4214   20.7907  -31.1029 H   0  0  0  0  0  0
  -25.5775   17.3724  -33.5309 H   0  0  0  0  0  0
  -24.6325   20.1430  -29.5246 H   0  0  0  0  0  0
  -23.7321   15.8217  -32.8881 H   0  0  0  0  0  0
  -22.0110   15.1223  -31.2739 H   0  0  0  0  0  0
  -22.8880   18.5510  -28.8362 H   0  0  0  0  0  0
  -20.5717   21.2447  -25.6515 H   0  0  0  0  0  0
  -18.2705   24.2438  -23.9878 H   0  0  0  0  0  0
  -18.0345   20.2009  -28.2480 H   0  0  0  0  0  0
  -20.3835   19.2429  -26.5261 H   0  0  0  0  0  0
  -21.3943   14.8452  -22.9829 H   0  0  0  0  0  0
  -19.3539   14.1408  -25.2095 H   0  0  0  0  0  0
  -22.8760   15.3459  -27.7658 H   0  0  0  0  0  0
  -22.0016   14.2323  -28.7618 H   0  0  0  0  0  0
  -20.4273   15.9014  -29.4816 H   0  0  0  0  0  0
  -16.4772   23.5629  -25.3690 H   0  0  0  0  0  0
  -18.0611   15.2736  -23.4706 H   0  0  0  0  0  0
  -17.4761   14.3687  -22.0984 H   0  0  0  0  0  0
  -20.1781   14.1603  -27.2078 H   0  0  0  0  0  0
  -21.2525   17.4278  -27.1394 H   0  0  0  0  0  0
  1  2  1  0  0  0
  1  3  2  0  0  0
  1 33  1  0  0  0
  2  4  2  0  0  0
  2 34  1  0  0  0
  3  8  1  0  0  0
  3 35  1  0  0  0
  4  9  1  0  0  0
  4 36  1  0  0  0
  5  6  2  0  0  0
  5  8  1  0  0  0
  5 37  1  0  0  0
  6 10  1  0  0  0
  6 38  1  0  0  0
  7  9  1  0  0  0
  7 10  2  0  0  0
  7 39  1  0  0  0
  8  9  2  0  0  0
 10 23  1  0  0  0
 11 13  2  0  0  0
 11 24  1  0  0  0
 11 40  1  0  0  0
 12 24  2  0  0  0
 12 25  1  0  0  0
 12 41  1  0  0  0
 13 14  1  0  0  0
 13 15  1  0  0  0
 14 25  1  0  0  0
 14 29  2  0  0  0
 15 16  2  0  0  0
 15 42  1  0  0  0
 16 19  1  0  0  0
 16 43  1  0  0  0
 17 18  2  0  0  0
 17 20  1  0  0  0
 17 44  1  0  0  0
 18 21  1  0  0  0
 18 45  1  0  0  0
 19 28  1  0  0  0
 19 30  2  0  0  0
 20 26  1  0  0  0
 20 31  2  0  0  0
 21 27  1  0  0  0
 21 32  2  0  0  0
 22 23  1  0  0  0
 22 27  1  0  0  0
 22 46  1  0  0  0
 22 47  1  0  0  0
 23 28  1  0  0  0
 23 48  1  0  0  0
 25 49  1  0  0  0
 26 50  1  0  0  0
 26 51  1  0  0  0
 27 52  1  0  0  0
 28 53  1  0  0  0
M  END
> <s_i_glide_gridfile>
Cov2_glide-grid_1

> <i_i_glide_lignum>
79

> <i_i_glide_rotatable_bonds>
10

> <r_i_docking_score>
-7.74128

> <r_i_glide_ligand_efficiency>
-0.241915

> <r_i_glide_ligand_efficiency_sa>
-0.768033

> <r_i_glide_ligand_efficiency_ln>
-1.73348

> <r_i_glide_gscore>
-7.74128

> <r_i_glide_lipo>
-2.70937

> <r_i_glide_hbond>
-0.592266

> <r_i_glide_metal>
-0

> <r_i_glide_rewards>
-1.42624

> <r_i_glide_evdw>
-50.4089

> <r_i_glide_ecoul>
-8.60177

> <r_i_glide_erotb>
0.854819

> <r_i_glide_esite>
-0.057515

> <r_i_glide_emodel>
-84.2272

> <r_i_glide_energy>
-59.0106

> <r_i_glide_einternal>
8.25761

> <i_i_glide_confnum>
56

> <i_i_glide_posenum>
227

> <r_i_glide_eff_state_penalty>
0

$$$$
12
                    3D
 Structure written by MMmdl.
 54 57  0  0  1  0            999 V2000
  -19.9104   13.6355  -28.5818 C   0  0  0  0  0  0
  -19.2105   14.6609  -29.2013 C   0  0  0  0  0  0
  -20.7928   13.9078  -27.5412 C   0  0  0  0  0  0
  -19.3840   15.9829  -28.8018 C   0  0  0  0  0  0
  -21.9047   15.5578  -26.0743 C   0  0  0  0  0  0
  -22.1325   16.8845  -25.7187 C   0  0  0  0  0  0
  -20.5061   17.6331  -27.3393 C   0  0  0  0  0  0
  -20.9983   15.2422  -27.1127 C   0  0  0  0  0  0
  -20.2833   16.2986  -27.7541 C   0  0  0  0  0  0
  -21.4562   17.9286  -26.3543 C   0  0  0  0  0  0
  -23.9788   16.6717  -31.8163 C   0  0  0  0  0  0
  -24.3969   17.9188  -32.1184 C   0  0  0  0  0  0
  -18.2641   21.8205  -26.0012 C   0  0  0  0  0  0
  -19.2108   23.3746  -24.4018 C   0  0  0  0  0  0
  -19.3306   22.1681  -25.2148 C   0  0  0  0  0  0
  -22.7703   16.4026  -31.0700 C   0  0  0  0  0  0
  -23.6707   19.1156  -31.7453 C   0  0  0  0  0  0
  -17.0053   22.5550  -26.0181 C   0  0  0  0  0  0
  -20.5815   21.4125  -25.2032 C   0  0  0  0  0  0
  -21.8107   20.4343  -29.1997 C   0  0  0  0  0  0
  -21.5907   19.9695  -30.6587 C   0  0  0  0  0  0
  -22.8899   19.9520  -26.9741 C   0  0  0  0  0  0
  -21.8041   19.3825  -26.0048 C   0  0  2  0  0  0
  -18.1339   24.0775  -24.4270 N   0  0  0  0  0  0
  -17.0649   23.6465  -25.2016 N   0  0  0  0  0  0
  -22.0723   17.5278  -30.7581 N   0  0  0  0  0  0
  -22.4925   18.8681  -31.0760 N   0  0  0  0  0  0
  -20.6140   20.2444  -25.8841 N   0  0  0  0  0  0
  -22.6443   19.7367  -28.4073 N   0  0  0  0  0  0
  -22.4110   15.2795  -30.7304 O   0  0  0  0  0  0
  -24.0936   20.2387  -32.0172 O   0  0  0  0  0  0
  -16.0106   22.2202  -26.6590 O   0  0  0  0  0  0
  -21.5898   21.8209  -24.6205 O   0  0  0  0  0  0
  -21.1913   21.4208  -28.8014 O   0  0  0  0  0  0
  -19.7685   12.6212  -28.9170 H   0  0  0  0  0  0
  -18.5249   14.4279  -30.0005 H   0  0  0  0  0  0
  -21.3367   13.1040  -27.0671 H   0  0  0  0  0  0
  -18.8303   16.7698  -29.2924 H   0  0  0  0  0  0
  -22.4339   14.7610  -25.5744 H   0  0  0  0  0  0
  -22.8607   17.0979  -24.9494 H   0  0  0  0  0  0
  -19.9758   18.4282  -27.8428 H   0  0  0  0  0  0
  -24.5651   15.8226  -32.1358 H   0  0  0  0  0  0
  -25.3115   18.0493  -32.6800 H   0  0  0  0  0  0
  -18.2960   20.9605  -26.6532 H   0  0  0  0  0  0
  -20.0142   23.7246  -23.7586 H   0  0  0  0  0  0
  -20.5502   19.6664  -30.7804 H   0  0  0  0  0  0
  -21.7270   20.8406  -31.3026 H   0  0  0  0  0  0
  -23.0683   21.0114  -26.7788 H   0  0  0  0  0  0
  -23.8377   19.4607  -26.7503 H   0  0  0  0  0  0
  -22.2422   19.3500  -25.0028 H   0  0  0  0  0  0
  -16.2336   24.2163  -25.1161 H   0  0  0  0  0  0
  -21.2149   17.5037  -30.2263 H   0  0  0  0  0  0
  -19.7802   19.9235  -26.3470 H   0  0  0  0  0  0
  -23.1399   18.9596  -28.8199 H   0  0  0  0  0  0
  1  2  1  0  0  0
  1  3  2  0  0  0
  1 35  1  0  0  0
  2  4  2  0  0  0
  2 36  1  0  0  0
  3  8  1  0  0  0
  3 37  1  0  0  0
  4  9  1  0  0  0
  4 38  1  0  0  0
  5  6  2  0  0  0
  5  8  1  0  0  0
  5 39  1  0  0  0
  6 10  1  0  0  0
  6 40  1  0  0  0
  7  9  1  0  0  0
  7 10  2  0  0  0
  7 41  1  0  0  0
  8  9  2  0  0  0
 10 23  1  0  0  0
 11 12  2  0  0  0
 11 16  1  0  0  0
 11 42  1  0  0  0
 12 17  1  0  0  0
 12 43  1  0  0  0
 13 15  2  0  0  0
 13 18  1  0  0  0
 13 44  1  0  0  0
 14 15  1  0  0  0
 14 24  2  0  0  0
 14 45  1  0  0  0
 15 19  1  0  0  0
 16 26  1  0  0  0
 16 30  2  0  0  0
 17 27  1  0  0  0
 17 31  2  0  0  0
 18 25  1  0  0  0
 18 32  2  0  0  0
 19 28  1  0  0  0
 19 33  2  0  0  0
 20 21  1  0  0  0
 20 29  1  0  0  0
 20 34  2  0  0  0
 21 27  1  0  0  0
 21 46  1  0  0  0
 21 47  1  0  0  0
 22 23  1  0  0  0
 22 29  1  0  0  0
 22 48  1  0  0  0
 22 49  1  0  0  0
 23 28  1  0  0  0
 23 50  1  0  0  0
 24 25  1  0  0  0
 25 51  1  0  0  0
 26 27  1  0  0  0
 26 52  1  0  0  0
 28 53  1  0  0  0
 29 54  1  0  0  0
M  END
> <s_i_glide_gridfile>
Cov2_glide-grid_1

> <i_i_glide_lignum>
16

> <i_i_glide_rotatable_bonds>
9

> <r_i_docking_score>
-7.7409

> <r_i_glide_ligand_efficiency>
-0.227673

> <r_i_glide_ligand_efficiency_sa>
-0.737574

> <r_i_glide_ligand_efficiency_ln>
-1.71018

> <r_i_glide_gscore>
-7.7409

> <r_i_glide_lipo>
-3.09272

> <r_i_glide_hbond>
-0.950341

> <r_i_glide_metal>
-0

> <r_i_glide_rewards>
-0.317349

> <r_i_glide_evdw>
-49.3126

> <r_i_glide_ecoul>
-9.22338

> <r_i_glide_erotb>
0.569655

> <r_i_glide_esite>
-0.100999

> <r_i_glide_emodel>
-86.2691

> <r_i_glide_energy>
-58.536

> <r_i_glide_einternal>
5.05596

> <i_i_glide_confnum>
97

> <i_i_glide_posenum>
172

> <r_i_glide_eff_state_penalty>
0

$$$$
54
                    3D
 Structure written by MMmdl.
 58 61  0  0  1  0            999 V2000
  -21.1545   14.6697  -21.8272 C   0  0  0  0  0  0
  -20.0826   13.9351  -22.3243 C   0  0  0  0  0  0
  -21.8567   15.5434  -22.6533 C   0  0  0  0  0  0
  -19.7007   14.0598  -23.6591 C   0  0  0  0  0  0
  -22.1917   16.5666  -24.8832 C   0  0  0  0  0  0
  -21.8086   16.6922  -26.2148 C   0  0  0  0  0  0
  -20.0426   15.0765  -25.8960 C   0  0  0  0  0  0
  -21.4968   15.6884  -24.0177 C   0  0  0  0  0  0
  -20.4012   14.9313  -24.5317 C   0  0  0  0  0  0
  -20.7343   15.9614  -26.7317 C   0  0  0  0  0  0
  -17.3264   23.2652  -24.9094 C   0  0  0  0  0  0
  -18.5607   23.0091  -24.4256 C   0  0  0  0  0  0
  -25.8033   17.2538  -31.8157 C   0  0  0  0  0  0
  -26.7427   19.0786  -32.7983 C   0  0  0  0  0  0
  -24.7276   17.9309  -31.3284 C   0  0  0  0  0  0
  -16.7959   22.6209  -26.0838 C   0  0  0  0  0  0
  -19.5162   22.1518  -25.1008 C   0  0  0  0  0  0
  -24.6410   19.3550  -31.6488 C   0  0  0  0  0  0
  -23.6918   17.3484  -30.4781 C   0  0  0  0  0  0
  -23.4451   16.0269  -30.3135 C   0  0  0  0  0  0
  -22.4584   15.5021  -29.3949 C   0  0  0  0  0  0
  -19.4277   19.3509  -27.1114 C   0  0  0  0  0  0
  -19.8954   20.8162  -27.1873 C   0  0  0  0  0  0
  -19.2438   17.2158  -28.3904 C   0  0  0  0  0  0
  -20.3114   16.1081  -28.2065 C   0  0  2  0  0  0
  -26.8105   17.8223  -32.5444 N   0  0  0  0  0  0
  -25.6857   19.8256  -32.3663 N   0  0  0  0  0  0
  -17.7342   21.9371  -26.7861 N   0  0  0  0  0  0
  -19.0676   21.6734  -26.3125 N   0  0  0  0  0  0
  -21.4122   16.3157  -29.1560 N   0  0  0  0  0  0
  -19.7065   18.5957  -28.1887 N   0  0  0  0  0  0
  -15.6114   22.6196  -26.4021 O   0  0  0  0  0  0
  -20.6290   21.9094  -24.6327 O   0  0  0  0  0  0
  -23.7254   20.1089  -31.3296 O   0  0  0  0  0  0
  -22.6022   14.4100  -28.8512 O   0  0  0  0  0  0
  -18.8102   18.9283  -26.1314 O   0  0  0  0  0  0
  -21.4384   14.5631  -20.7897 H   0  0  0  0  0  0
  -19.5421   13.2717  -21.6658 H   0  0  0  0  0  0
  -22.6813   16.1172  -22.2546 H   0  0  0  0  0  0
  -18.8629   13.4886  -24.0294 H   0  0  0  0  0  0
  -23.0172   17.1488  -24.5033 H   0  0  0  0  0  0
  -22.3488   17.3766  -26.8524 H   0  0  0  0  0  0
  -19.2113   14.5020  -26.2779 H   0  0  0  0  0  0
  -16.6636   23.9448  -24.3945 H   0  0  0  0  0  0
  -18.8797   23.4896  -23.5074 H   0  0  0  0  0  0
  -25.9275   16.2034  -31.6031 H   0  0  0  0  0  0
  -27.5135   19.5824  -33.3741 H   0  0  0  0  0  0
  -23.0925   18.0518  -29.9117 H   0  0  0  0  0  0
  -24.0092   15.2732  -30.8399 H   0  0  0  0  0  0
  -19.8428   21.1831  -28.2126 H   0  0  0  0  0  0
  -20.9486   20.8372  -26.9005 H   0  0  0  0  0  0
  -18.4109   17.0208  -27.7256 H   0  0  0  0  0  0
  -18.8227   17.1487  -29.3962 H   0  0  0  0  0  0
  -19.8521   15.1612  -28.5033 H   0  0  0  0  0  0
  -25.6256   20.8022  -32.5935 H   0  0  0  0  0  0
  -17.4833   21.3355  -27.5553 H   0  0  0  0  0  0
  -21.3074   17.1000  -29.7787 H   0  0  0  0  0  0
  -20.2032   19.0202  -28.9564 H   0  0  0  0  0  0
  1  2  1  0  0  0
  1  3  2  0  0  0
  1 37  1  0  0  0
  2  4  2  0  0  0
  2 38  1  0  0  0
  3  8  1  0  0  0
  3 39  1  0  0  0
  4  9  1  0  0  0
  4 40  1  0  0  0
  5  6  2  0  0  0
  5  8  1  0  0  0
  5 41  1  0  0  0
  6 10  1  0  0  0
  6 42  1  0  0  0
  7  9  1  0  0  0
  7 10  2  0  0  0
  7 43  1  0  0  0
  8  9  2  0  0  0
 10 25  1  0  0  0
 11 12  2  0  0  0
 11 16  1  0  0  0
 11 44  1  0  0  0
 12 17  1  0  0  0
 12 45  1  0  0  0
 13 15  2  0  0  0
 13 26  1  0  0  0
 13 46  1  0  0  0
 14 26  2  0  0  0
 14 27  1  0  0  0
 14 47  1  0  0  0
 15 18  1  0  0  0
 15 19  1  0  0  0
 16 28  1  0  0  0
 16 32  2  0  0  0
 17 29  1  0  0  0
 17 33  2  0  0  0
 18 27  1  0  0  0
 18 34  2  0  0  0
 19 20  2  0  0  0
 19 48  1  0  0  0
 20 21  1  0  0  0
 20 49  1  0  0  0
 21 30  1  0  0  0
 21 35  2  0  0  0
 22 23  1  0  0  0
 22 31  1  0  0  0
 22 36  2  0  0  0
 23 29  1  0  0  0
 23 50  1  0  0  0
 23 51  1  0  0  0
 24 25  1  0  0  0
 24 31  1  0  0  0
 24 52  1  0  0  0
 24 53  1  0  0  0
 25 30  1  0  0  0
 25 54  1  0  0  0
 27 55  1  0  0  0
 28 29  1  0  0  0
 28 56  1  0  0  0
 30 57  1  0  0  0
 31 58  1  0  0  0
M  END
> <s_i_glide_gridfile>
Cov2_glide-grid_1

> <i_i_glide_lignum>
44

> <i_i_glide_rotatable_bonds>
10

> <r_i_docking_score>
-7.74087

> <r_i_glide_ligand_efficiency>
-0.215024

> <r_i_glide_ligand_efficiency_sa>
-0.709994

> <r_i_glide_ligand_efficiency_ln>
-1.68885

> <r_i_glide_gscore>
-7.74087

> <r_i_glide_lipo>
-3.01458

> <r_i_glide_hbond>
-0.554141

> <r_i_glide_metal>
-0

> <r_i_glide_rewards>
-0.800829

> <r_i_glide_evdw>
-54.9575

> <r_i_glide_ecoul>
-8.16365

> <r_i_glide_erotb>
0.6011

> <r_i_glide_esite>
0

> <r_i_glide_emodel>
-91.5587

> <r_i_glide_energy>
-63.1212

> <r_i_glide_einternal>
6.01893

> <i_i_glide_confnum>
87

> <i_i_glide_posenum>
297

> <r_i_glide_eff_state_penalty>
0

$$$$
98
                    3D
 Structure written by MMmdl.
 53 55  0  0  1  0            999 V2000
  -20.1256   13.4217  -21.0362 C   0  0  0  0  0  0
  -18.9517   13.8212  -21.6622 C   0  0  0  0  0  0
  -21.3507   13.9802  -21.3928 C   0  0  0  0  0  0
  -18.9974   14.7841  -22.6601 C   0  0  0  0  0  0
  -21.3988   14.9469  -22.3955 C   0  0  0  0  0  0
  -18.8059   22.6001  -25.3270 C   0  0  0  0  0  0
  -17.6697   21.2065  -26.9197 C   0  0  0  0  0  0
  -16.5382   23.0168  -26.0014 C   0  0  0  0  0  0
  -20.2197   15.3542  -23.0298 C   0  0  0  0  0  0
  -18.8255   21.4874  -26.1766 C   0  0  0  0  0  0
  -17.6529   23.3789  -25.2418 C   0  0  0  0  0  0
  -23.0212   15.3066  -29.9771 C   0  0  0  0  0  0
  -23.2979   16.4210  -31.9440 C   0  0  0  0  0  0
  -22.1187   16.1917  -29.4737 C   0  0  0  0  0  0
  -21.7768   17.3402  -30.3156 C   0  0  0  0  0  0
  -21.4654   16.0633  -28.1727 C   0  0  0  0  0  0
  -21.6005   15.0183  -27.3233 C   0  0  0  0  0  0
  -20.9130   14.9557  -26.0593 C   0  0  0  0  0  0
  -19.8179   19.2929  -25.4057 C   0  0  0  0  0  0
  -20.0457   20.5700  -26.2274 C   0  0  0  0  0  0
  -20.6802   17.8200  -23.5560 C   0  0  0  0  0  0
  -20.2454   16.4322  -24.1197 C   0  0  2  0  0  0
  -16.5352   21.9481  -26.8396 N   0  0  0  0  0  0
  -23.6104   15.4185  -31.2022 N   0  0  0  0  0  0
  -22.4103   17.3590  -31.5081 N   0  0  0  0  0  0
  -17.6108   24.4851  -24.4016 N   0  0  0  0  0  0
  -20.9992   16.0848  -25.3317 N   0  0  0  0  0  0
  -20.7504   18.9525  -24.4986 N   0  0  0  0  0  0
  -20.9965   18.2442  -30.0228 O   0  0  0  0  0  0
  -20.3109   13.9447  -25.7066 O   0  0  0  0  0  0
  -18.8106   18.6226  -25.6067 O   0  0  0  0  0  0
  -20.0711   12.6812  -20.2516 H   0  0  0  0  0  0
  -18.0109   13.3846  -21.3739 H   0  0  0  0  0  0
  -22.2552   13.6594  -20.8965 H   0  0  0  0  0  0
  -18.0774   15.0871  -23.1411 H   0  0  0  0  0  0
  -22.3470   15.3766  -22.6812 H   0  0  0  0  0  0
  -19.6702   22.8465  -24.7293 H   0  0  0  0  0  0
  -17.6311   20.3521  -27.5818 H   0  0  0  0  0  0
  -15.6254   23.5912  -25.9495 H   0  0  0  0  0  0
  -23.3151   14.4378  -29.4069 H   0  0  0  0  0  0
  -23.7311   16.5541  -32.9325 H   0  0  0  0  0  0
  -20.8088   16.8730  -27.8686 H   0  0  0  0  0  0
  -22.2109   14.1578  -27.5467 H   0  0  0  0  0  0
  -20.2296   20.2694  -27.2603 H   0  0  0  0  0  0
  -20.9364   21.1002  -25.8905 H   0  0  0  0  0  0
  -21.6681   17.7319  -23.1013 H   0  0  0  0  0  0
  -20.0111   18.1063  -22.7429 H   0  0  0  0  0  0
  -19.2120   16.5366  -24.4501 H   0  0  0  0  0  0
  -22.1625   18.1313  -32.1003 H   0  0  0  0  0  0
  -16.6669   24.7713  -24.1523 H   0  0  0  0  0  0
  -18.2634   24.4396  -23.6285 H   0  0  0  0  0  0
  -21.4563   16.8661  -25.7767 H   0  0  0  0  0  0
  -21.5488   19.5611  -24.3950 H   0  0  0  0  0  0
  1  2  1  0  0  0
  1  3  2  0  0  0
  1 32  1  0  0  0
  2  4  2  0  0  0
  2 33  1  0  0  0
  3  5  1  0  0  0
  3 34  1  0  0  0
  4  9  1  0  0  0
  4 35  1  0  0  0
  5  9  2  0  0  0
  5 36  1  0  0  0
  6 10  1  0  0  0
  6 11  2  0  0  0
  6 37  1  0  0  0
  7 10  2  0  0  0
  7 23  1  0  0  0
  7 38  1  0  0  0
  8 11  1  0  0  0
  8 23  2  0  0  0
  8 39  1  0  0  0
  9 22  1  0  0  0
 10 20  1  0  0  0
 11 26  1  0  0  0
 12 14  2  0  0  0
 12 24  1  0  0  0
 12 40  1  0  0  0
 13 24  2  0  0  0
 13 25  1  0  0  0
 13 41  1  0  0  0
 14 15  1  0  0  0
 14 16  1  0  0  0
 15 25  1  0  0  0
 15 29  2  0  0  0
 16 17  2  0  0  0
 16 42  1  0  0  0
 17 18  1  0  0  0
 17 43  1  0  0  0
 18 27  1  0  0  0
 18 30  2  0  0  0
 19 20  1  0  0  0
 19 28  1  0  0  0
 19 31  2  0  0  0
 20 44  1  0  0  0
 20 45  1  0  0  0
 21 22  1  0  0  0
 21 28  1  0  0  0
 21 46  1  0  0  0
 21 47  1  0  0  0
 22 27  1  0  0  0
 22 48  1  0  0  0
 25 49  1  0  0  0
 26 50  1  0  0  0
 26 51  1  0  0  0
 27 52  1  0  0  0
 28 53  1  0  0  0
M  END
> <s_i_glide_gridfile>
Cov2_glide-grid_1

> <i_i_glide_lignum>
95

> <i_i_glide_rotatable_bonds>
10

> <r_i_docking_score>
-7.72637

> <r_i_glide_ligand_efficiency>
-0.249238

> <r_i_glide_ligand_efficiency_sa>
-0.782951

> <r_i_glide_ligand_efficiency_ln>
-1.74253

> <r_i_glide_gscore>
-7.72637

> <r_i_glide_lipo>
-2.38838

> <r_i_glide_hbond>
-0.787752

> <r_i_glide_metal>
-0

> <r_i_glide_rewards>
-1.33075

> <r_i_glide_evdw>
-49.9837

> <r_i_glide_ecoul>
-10.1573

> <r_i_glide_erotb>
0.903459

> <r_i_glide_esite>
-0.100182

> <r_i_glide_emodel>
-85.5234

> <r_i_glide_energy>
-60.1409

> <r_i_glide_einternal>
4.63116

> <i_i_glide_confnum>
159

> <i_i_glide_posenum>
381

> <r_i_glide_eff_state_penalty>
0

$$$$
84
                    3D
 Structure written by MMmdl.
 55 58  0  0  1  0            999 V2000
  -21.1795   13.0808  -29.3959 C   0  0  0  0  0  0
  -19.9550   13.7204  -29.5988 C   0  0  0  0  0  0
  -22.1077   13.6142  -28.5013 C   0  0  0  0  0  0
  -19.6375   14.8779  -28.8850 C   0  0  0  0  0  0
  -21.8170   14.8034  -27.8306 C   0  0  0  0  0  0
  -20.5641   15.4097  -27.9842 C   0  0  0  0  0  0
  -23.8634   21.0324  -31.2945 C   0  0  0  0  0  0
  -19.6121   21.6351  -25.6799 C   0  0  0  0  0  0
  -23.0933   22.7906  -32.5234 C   0  0  0  0  0  0
  -22.9534   21.1897  -30.2940 C   0  0  0  0  0  0
  -18.6109   21.2284  -26.5085 C   0  0  0  0  0  0
  -22.0114   22.3014  -30.4230 C   0  0  0  0  0  0
  -17.3774   22.0100  -26.4948 C   0  0  0  0  0  0
  -18.4292   23.3665  -24.7990 C   0  0  0  0  0  0
  -22.8429   20.3114  -29.1306 C   0  0  0  0  0  0
  -23.8096   19.4847  -28.6678 C   0  0  0  0  0  0
  -23.5896   18.6017  -27.5497 C   0  0  0  0  0  0
  -19.2111   18.7155  -26.7335 C   0  0  0  0  0  0
  -22.6270   15.5450  -26.7875 C   0  0  0  0  0  0
  -20.4434   16.5772  -27.0153 C   0  0  2  0  0  0
  -21.9260   16.9072  -26.6984 C   0  0  1  0  0  0
  -18.2782   24.5616  -23.8904 C   0  0  0  0  0  0
  -18.6933   19.9916  -27.4312 C   0  0  0  0  0  0
  -23.9348   21.8256  -32.4062 N   0  0  0  0  0  0
  -19.5326   22.7078  -24.8393 N   0  0  0  0  0  0
  -22.1570   23.0221  -31.5575 N   0  0  0  0  0  0
  -17.3820   23.0259  -25.6025 N   0  0  0  0  0  0
  -22.4886   17.8432  -27.6810 N   0  0  0  0  0  0
  -19.6942   17.7420  -27.5232 N   0  0  0  0  0  0
  -21.1469   22.6170  -29.6046 O   0  0  0  0  0  0
  -16.3997   21.8067  -27.2016 O   0  0  0  0  0  0
  -24.3434   18.5563  -26.5804 O   0  0  0  0  0  0
  -19.1954   18.6188  -25.5061 O   0  0  0  0  0  0
  -21.4039   12.1709  -29.9348 H   0  0  0  0  0  0
  -19.2376   13.3021  -30.2880 H   0  0  0  0  0  0
  -23.0499   13.1095  -28.3457 H   0  0  0  0  0  0
  -18.6695   15.3356  -29.0224 H   0  0  0  0  0  0
  -24.5775   20.2211  -31.2574 H   0  0  0  0  0  0
  -20.5421   21.0845  -25.6519 H   0  0  0  0  0  0
  -23.0986   23.4494  -33.3877 H   0  0  0  0  0  0
  -21.8965   20.3146  -28.6025 H   0  0  0  0  0  0
  -24.7943   19.4301  -29.1084 H   0  0  0  0  0  0
  -22.5465   15.0204  -25.8363 H   0  0  0  0  0  0
  -23.6954   15.6246  -26.9974 H   0  0  0  0  0  0
  -19.9808   16.1884  -26.1053 H   0  0  0  0  0  0
  -22.0159   17.3177  -25.6907 H   0  0  0  0  0  0
  -18.7269   25.4441  -24.3401 H   0  0  0  0  0  0
  -18.7700   24.3815  -22.9327 H   0  0  0  0  0  0
  -17.2306   24.7765  -23.6769 H   0  0  0  0  0  0
  -17.7262   19.7485  -27.8746 H   0  0  0  0  0  0
  -19.3414   20.2404  -28.2734 H   0  0  0  0  0  0
  -21.5184   23.7928  -31.6512 H   0  0  0  0  0  0
  -16.5275   23.5519  -25.5417 H   0  0  0  0  0  0
  -21.9922   17.9004  -28.5568 H   0  0  0  0  0  0
  -19.5769   17.8134  -28.5228 H   0  0  0  0  0  0
  1  2  1  0  0  0
  1  3  2  0  0  0
  1 34  1  0  0  0
  2  4  2  0  0  0
  2 35  1  0  0  0
  3  5  1  0  0  0
  3 36  1  0  0  0
  4  6  1  0  0  0
  4 37  1  0  0  0
  5  6  2  0  0  0
  5 19  1  0  0  0
  6 20  1  0  0  0
  7 10  2  0  0  0
  7 24  1  0  0  0
  7 38  1  0  0  0
  8 11  2  0  0  0
  8 25  1  0  0  0
  8 39  1  0  0  0
  9 24  2  0  0  0
  9 26  1  0  0  0
  9 40  1  0  0  0
 10 12  1  0  0  0
 10 15  1  0  0  0
 11 13  1  0  0  0
 11 23  1  0  0  0
 12 26  1  0  0  0
 12 30  2  0  0  0
 13 27  1  0  0  0
 13 31  2  0  0  0
 14 22  1  0  0  0
 14 25  2  0  0  0
 14 27  1  0  0  0
 15 16  2  0  0  0
 15 41  1  0  0  0
 16 17  1  0  0  0
 16 42  1  0  0  0
 17 28  1  0  0  0
 17 32  2  0  0  0
 18 23  1  0  0  0
 18 29  1  0  0  0
 18 33  2  0  0  0
 19 21  1  0  0  0
 19 43  1  0  0  0
 19 44  1  0  0  0
 20 21  1  0  0  0
 20 29  1  0  0  0
 20 45  1  0  0  0
 21 28  1  0  0  0
 21 46  1  0  0  0
 22 47  1  0  0  0
 22 48  1  0  0  0
 22 49  1  0  0  0
 23 50  1  0  0  0
 23 51  1  0  0  0
 26 52  1  0  0  0
 27 53  1  0  0  0
 28 54  1  0  0  0
 29 55  1  0  0  0
M  END
> <s_i_glide_gridfile>
Cov2_glide-grid_1

> <i_i_glide_lignum>
81

> <i_i_glide_rotatable_bonds>
8

> <r_i_docking_score>
-7.72256

> <r_i_glide_ligand_efficiency>
-0.234017

> <r_i_glide_ligand_efficiency_sa>
-0.750617

> <r_i_glide_ligand_efficiency_ln>
-1.71746

> <r_i_glide_gscore>
-7.72256

> <r_i_glide_lipo>
-2.73216

> <r_i_glide_hbond>
-0.796309

> <r_i_glide_metal>
-0

> <r_i_glide_rewards>
-0.603122

> <r_i_glide_evdw>
-47.819

> <r_i_glide_ecoul>
-12.3983

> <r_i_glide_erotb>
0.702952

> <r_i_glide_esite>
-0.0432252

> <r_i_glide_emodel>
-86.3042

> <r_i_glide_energy>
-60.2173

> <r_i_glide_einternal>
6.07037

> <i_i_glide_confnum>
41

> <i_i_glide_posenum>
349

> <r_i_glide_eff_state_penalty>
0

$$$$
34
                    3D
 Structure written by MMmdl.
 57 60  0  0  1  0            999 V2000
  -21.5357   14.7218  -21.2182 C   0  0  0  0  0  0
  -22.2981   15.8556  -21.4789 C   0  0  0  0  0  0
  -24.7527   19.4360  -31.3266 C   0  0  0  0  0  0
  -20.7778   14.1313  -22.2250 C   0  0  0  0  0  0
  -22.3246   16.4129  -22.7550 C   0  0  0  0  0  0
  -20.0107   14.1166  -24.5790 C   0  0  0  0  0  0
  -23.6645   18.5632  -31.3046 C   0  0  0  0  0  0
  -20.0112   14.6879  -25.8466 C   0  0  0  0  0  0
  -21.5661   16.3739  -25.1131 C   0  0  0  0  0  0
  -25.9540   18.9898  -31.8811 C   0  0  0  0  0  0
  -25.0348   16.9182  -32.3858 C   0  0  0  0  0  0
  -20.7758   14.6797  -23.5324 C   0  0  0  0  0  0
  -21.5679   15.8340  -23.8036 C   0  0  0  0  0  0
  -20.7655   15.8295  -26.1250 C   0  0  0  0  0  0
  -23.7994   17.2775  -31.8405 C   0  0  0  0  0  0
  -18.3345   23.0261  -24.8016 C   0  0  0  0  0  0
  -17.3110   22.6665  -25.6017 C   0  0  0  0  0  0
  -19.6099   22.3502  -24.8058 C   0  0  0  0  0  0
  -17.3796   21.5644  -26.5402 C   0  0  0  0  0  0
  -22.3201   15.7832  -30.4138 C   0  0  0  0  0  0
  -19.5067   18.5827  -26.8975 C   0  0  0  0  0  0
  -22.6348   16.2892  -31.8244 C   0  0  0  0  0  0
  -18.8962   19.8452  -27.5435 C   0  0  0  0  0  0
  -20.5890   15.4242  -28.6788 C   0  0  0  0  0  0
  -20.8010   16.4590  -27.5338 C   0  0  2  0  0  0
  -26.1058   17.7490  -32.4083 N   0  0  0  0  0  0
  -19.6876   21.3621  -25.7328 N   0  0  0  0  0  0
  -18.5975   20.9202  -26.5590 N   0  0  0  0  0  0
  -21.0442   15.8759  -30.0010 N   0  0  0  0  0  0
  -19.9641   17.6579  -27.7633 N   0  0  0  0  0  0
  -20.5548   22.6240  -24.0732 O   0  0  0  0  0  0
  -16.4110   21.2577  -27.2341 O   0  0  0  0  0  0
  -23.2102   15.2856  -29.7242 O   0  0  0  0  0  0
  -19.5737   18.4729  -25.6749 O   0  0  0  0  0  0
  -21.5240   14.2998  -20.2207 H   0  0  0  0  0  0
  -22.8682   16.3113  -20.6828 H   0  0  0  0  0  0
  -24.6708   20.4315  -30.9151 H   0  0  0  0  0  0
  -20.1822   13.2554  -22.0125 H   0  0  0  0  0  0
  -22.9093   17.3003  -22.9496 H   0  0  0  0  0  0
  -19.4072   13.2399  -24.3896 H   0  0  0  0  0  0
  -22.7253   18.8828  -30.8746 H   0  0  0  0  0  0
  -19.3901   14.2359  -26.6073 H   0  0  0  0  0  0
  -22.1653   17.2500  -25.3128 H   0  0  0  0  0  0
  -26.8212   19.6341  -31.9104 H   0  0  0  0  0  0
  -25.1929   15.9338  -32.8008 H   0  0  0  0  0  0
  -18.2013   23.8358  -24.0976 H   0  0  0  0  0  0
  -16.3779   23.2060  -25.5300 H   0  0  0  0  0  0
  -22.8453   15.4219  -32.4435 H   0  0  0  0  0  0
  -21.7572   16.7825  -32.2461 H   0  0  0  0  0  0
  -18.0092   19.5263  -28.0962 H   0  0  0  0  0  0
  -19.5950   20.2375  -28.2817 H   0  0  0  0  0  0
  -21.0891   14.4817  -28.4299 H   0  0  0  0  0  0
  -19.5293   15.1802  -28.7571 H   0  0  0  0  0  0
  -21.8316   16.8048  -27.6430 H   0  0  0  0  0  0
  -20.4715   20.7288  -25.7700 H   0  0  0  0  0  0
  -20.3504   16.2153  -30.6521 H   0  0  0  0  0  0
  -19.8219   17.8614  -28.7404 H   0  0  0  0  0  0
  1  2  1  0  0  0
  1  4  2  0  0  0
  1 35  1  0  0  0
  2  5  2  0  0  0
  2 36  1  0  0  0
  3  7  2  0  0  0
  3 10  1  0  0  0
  3 37  1  0  0  0
  4 12  1  0  0  0
  4 38  1  0  0  0
  5 13  1  0  0  0
  5 39  1  0  0  0
  6  8  2  0  0  0
  6 12  1  0  0  0
  6 40  1  0  0  0
  7 15  1  0  0  0
  7 41  1  0  0  0
  8 14  1  0  0  0
  8 42  1  0  0  0
  9 13  1  0  0  0
  9 14  2  0  0  0
  9 43  1  0  0  0
 10 26  2  0  0  0
 10 44  1  0  0  0
 11 15  2  0  0  0
 11 26  1  0  0  0
 11 45  1  0  0  0
 12 13  2  0  0  0
 14 25  1  0  0  0
 15 22  1  0  0  0
 16 17  2  0  0  0
 16 18  1  0  0  0
 16 46  1  0  0  0
 17 19  1  0  0  0
 17 47  1  0  0  0
 18 27  1  0  0  0
 18 31  2  0  0  0
 19 28  1  0  0  0
 19 32  2  0  0  0
 20 22  1  0  0  0
 20 29  1  0  0  0
 20 33  2  0  0  0
 21 23  1  0  0  0
 21 30  1  0  0  0
 21 34  2  0  0  0
 22 48  1  0  0  0
 22 49  1  0  0  0
 23 28  1  0  0  0
 23 50  1  0  0  0
 23 51  1  0  0  0
 24 25  1  0  0  0
 24 29  1  0  0  0
 24 52  1  0  0  0
 24 53  1  0  0  0
 25 30  1  0  0  0
 25 54  1  0  0  0
 27 28  1  0  0  0
 27 55  1  0  0  0
 29 56  1  0  0  0
 30 57  1  0  0  0
M  END
> <s_i_glide_gridfile>
Cov2_glide-grid_1

> <i_i_glide_lignum>
31

> <i_i_glide_rotatable_bonds>
10

> <r_i_docking_score>
-7.71314

> <r_i_glide_ligand_efficiency>
-0.226857

> <r_i_glide_ligand_efficiency_sa>
-0.734929

> <r_i_glide_ligand_efficiency_ln>
-1.70405

> <r_i_glide_gscore>
-7.71314

> <r_i_glide_lipo>
-3.34579

> <r_i_glide_hbond>
-0.517208

> <r_i_glide_metal>
-0

> <r_i_glide_rewards>
-0.976226

> <r_i_glide_evdw>
-54.1053

> <r_i_glide_ecoul>
-5.60734

> <r_i_glide_erotb>
0.672451

> <r_i_glide_esite>
0

> <r_i_glide_emodel>
-84.1665

> <r_i_glide_energy>
-59.7127

> <r_i_glide_einternal>
6.42961

> <i_i_glide_confnum>
4

> <i_i_glide_posenum>
194

> <r_i_glide_eff_state_penalty>
0

$$$$
56
                    3D
 Structure written by MMmdl.
 56 59  0  0  1  0            999 V2000
  -22.8124   14.3637  -30.0998 C   0  0  0  0  0  0
  -22.6924   15.7543  -30.1264 C   0  0  0  0  0  0
  -22.0550   13.6116  -29.2015 C   0  0  0  0  0  0
  -21.8014   16.3997  -29.2658 C   0  0  0  0  0  0
  -21.1981   14.2589  -28.3105 C   0  0  0  0  0  0
  -21.0406   15.6508  -28.3640 C   0  0  0  0  0  0
  -18.0098   20.9706  -26.6610 C   0  0  0  0  0  0
  -22.4107   14.0069  -19.5897 C   0  0  0  0  0  0
  -22.4381   14.7295  -20.7424 C   0  0  0  0  0  0
  -19.2079   20.8647  -26.0315 C   0  0  0  0  0  0
  -17.1351   22.0988  -26.3947 C   0  0  0  0  0  0
  -23.4030   15.8372  -20.8017 C   0  0  0  0  0  0
  -24.0470   15.2055  -18.5634 C   0  0  0  0  0  0
  -18.8953   22.9827  -24.9171 C   0  0  0  0  0  0
  -21.5103   14.4036  -21.8305 C   0  0  0  0  0  0
  -21.5244   14.8720  -23.0994 C   0  0  0  0  0  0
  -20.5162   14.4973  -24.0632 C   0  0  0  0  0  0
  -19.9032   18.5852  -27.1551 C   0  0  0  0  0  0
  -20.2276   13.6670  -27.3135 C   0  0  0  0  0  0
  -19.9323   16.0755  -27.4066 C   0  0  2  0  0  0
  -19.8360   14.8671  -26.4453 C   0  0  1  0  0  0
  -24.9570   15.5209  -17.4002 C   0  0  0  0  0  0
  -20.2373   19.7343  -26.1836 C   0  0  0  0  0  0
  -23.2105   14.2333  -18.5065 N   0  0  0  0  0  0
  -19.6088   21.8444  -25.1532 N   0  0  0  0  0  0
  -24.1400   15.9835  -19.6781 N   0  0  0  0  0  0
  -17.6819   23.0082  -25.5421 N   0  0  0  0  0  0
  -20.7448   14.9891  -25.2910 N   0  0  0  0  0  0
  -20.1303   17.3472  -26.6908 N   0  0  0  0  0  0
  -16.0103   22.2209  -26.8595 O   0  0  0  0  0  0
  -23.6102   16.6051  -21.7385 O   0  0  0  0  0  0
  -19.3332   23.9235  -24.2663 O   0  0  0  0  0  0
  -19.5303   13.8194  -23.7756 O   0  0  0  0  0  0
  -19.4932   18.8127  -28.2918 O   0  0  0  0  0  0
  -23.4872   13.8697  -30.7836 H   0  0  0  0  0  0
  -23.2747   16.3307  -30.8308 H   0  0  0  0  0  0
  -22.1430   12.5346  -29.2015 H   0  0  0  0  0  0
  -21.6881   17.4721  -29.3279 H   0  0  0  0  0  0
  -17.6597   20.2257  -27.3595 H   0  0  0  0  0  0
  -21.7146   13.1857  -19.4853 H   0  0  0  0  0  0
  -20.7206   13.7041  -21.5768 H   0  0  0  0  0  0
  -22.2860   15.5517  -23.4488 H   0  0  0  0  0  0
  -19.3565   13.2878  -27.8496 H   0  0  0  0  0  0
  -20.6094   12.8272  -26.7385 H   0  0  0  0  0  0
  -19.0187   16.1231  -28.0039 H   0  0  0  0  0  0
  -18.8107   14.7248  -26.1070 H   0  0  0  0  0  0
  -24.8070   14.8256  -16.5740 H   0  0  0  0  0  0
  -24.7702   16.5265  -17.0242 H   0  0  0  0  0  0
  -26.0030   15.4579  -17.6987 H   0  0  0  0  0  0
  -21.1864   20.1665  -26.5033 H   0  0  0  0  0  0
  -20.4416   19.3342  -25.1879 H   0  0  0  0  0  0
  -20.4750   21.7739  -24.6414 H   0  0  0  0  0  0
  -24.8006   16.7402  -19.7133 H   0  0  0  0  0  0
  -17.1124   23.8164  -25.3398 H   0  0  0  0  0  0
  -21.6332   15.4314  -25.4689 H   0  0  0  0  0  0
  -20.4679   17.2560  -25.7439 H   0  0  0  0  0  0
  1  2  1  0  0  0
  1  3  2  0  0  0
  1 35  1  0  0  0
  2  4  2  0  0  0
  2 36  1  0  0  0
  3  5  1  0  0  0
  3 37  1  0  0  0
  4  6  1  0  0  0
  4 38  1  0  0  0
  5  6  2  0  0  0
  5 19  1  0  0  0
  6 20  1  0  0  0
  7 10  2  0  0  0
  7 11  1  0  0  0
  7 39  1  0  0  0
  8  9  2  0  0  0
  8 24  1  0  0  0
  8 40  1  0  0  0
  9 12  1  0  0  0
  9 15  1  0  0  0
 10 23  1  0  0  0
 10 25  1  0  0  0
 11 27  1  0  0  0
 11 30  2  0  0  0
 12 26  1  0  0  0
 12 31  2  0  0  0
 13 22  1  0  0  0
 13 24  2  0  0  0
 13 26  1  0  0  0
 14 25  1  0  0  0
 14 27  1  0  0  0
 14 32  2  0  0  0
 15 16  2  0  0  0
 15 41  1  0  0  0
 16 17  1  0  0  0
 16 42  1  0  0  0
 17 28  1  0  0  0
 17 33  2  0  0  0
 18 23  1  0  0  0
 18 29  1  0  0  0
 18 34  2  0  0  0
 19 21  1  0  0  0
 19 43  1  0  0  0
 19 44  1  0  0  0
 20 21  1  0  0  0
 20 29  1  0  0  0
 20 45  1  0  0  0
 21 28  1  0  0  0
 21 46  1  0  0  0
 22 47  1  0  0  0
 22 48  1  0  0  0
 22 49  1  0  0  0
 23 50  1  0  0  0
 23 51  1  0  0  0
 25 52  1  0  0  0
 26 53  1  0  0  0
 27 54  1  0  0  0
 28 55  1  0  0  0
 29 56  1  0  0  0
M  END
> <s_i_glide_gridfile>
Cov2_glide-grid_1

> <i_i_glide_lignum>
23

> <i_i_glide_rotatable_bonds>
8

> <r_i_docking_score>
-7.69608

> <r_i_glide_ligand_efficiency>
-0.226355

> <r_i_glide_ligand_efficiency_sa>
-0.733303

> <r_i_glide_ligand_efficiency_ln>
-1.70028

> <r_i_glide_gscore>
-7.69608

> <r_i_glide_lipo>
-3.5113

> <r_i_glide_hbond>
-0.608

> <r_i_glide_metal>
-0

> <r_i_glide_rewards>
-0.83979

> <r_i_glide_evdw>
-51.3984

> <r_i_glide_ecoul>
-5.00865

> <r_i_glide_erotb>
0.659328

> <r_i_glide_esite>
-0.0750959

> <r_i_glide_emodel>
-81.107

> <r_i_glide_energy>
-56.4071

> <r_i_glide_einternal>
4.20109

> <i_i_glide_confnum>
23

> <i_i_glide_posenum>
110

> <r_i_glide_eff_state_penalty>
0

$$$$
39
                    3D
 Structure written by MMmdl.
 59 62  0  0  1  0            999 V2000
  -20.8102   12.8534  -29.6834 C   0  0  0  0  0  0
  -19.6991   13.4185  -29.0650 C   0  0  0  0  0  0
  -21.9304   13.6321  -29.9453 C   0  0  0  0  0  0
  -19.7321   14.7411  -28.6555 C   0  0  0  0  0  0
  -21.9718   14.9729  -29.5590 C   0  0  0  0  0  0
  -20.8769   15.5180  -28.8489 C   0  0  0  0  0  0
  -17.3281   23.1339  -24.8438 C   0  0  0  0  0  0
  -18.5751   22.8485  -24.4106 C   0  0  0  0  0  0
  -20.5436   14.4041  -24.4482 C   0  0  0  0  0  0
  -21.4806   15.3885  -24.4306 C   0  0  0  0  0  0
  -16.7936   22.6228  -26.0828 C   0  0  0  0  0  0
  -19.5365   22.1107  -25.2073 C   0  0  0  0  0  0
  -21.9713   15.8212  -23.1186 C   0  0  0  0  0  0
  -20.4352   14.2112  -22.1866 C   0  0  0  0  0  0
  -22.0162   15.9363  -25.6714 C   0  0  0  0  0  0
  -22.4177   17.2120  -25.8707 C   0  0  0  0  0  0
  -22.9818   17.6553  -27.1247 C   0  0  0  0  0  0
  -19.5444   19.7698  -27.7958 C   0  0  0  0  0  0
  -23.2097   15.8199  -29.8594 C   0  0  0  0  0  0
  -23.0459   17.3299  -29.5492 C   0  0  0  0  0  0
  -20.8918   16.9718  -28.3919 C   0  0  1  0  0  0
  -19.9125   13.5515  -20.9407 C   0  0  0  0  0  0
  -19.9404   21.2259  -27.5159 C   0  0  0  0  0  0
  -19.9918   17.8504  -29.2958 C   0  0  0  0  0  0
  -20.0128   13.8213  -23.3336 N   0  0  0  0  0  0
  -21.3774   15.1919  -22.0786 N   0  0  0  0  0  0
  -17.7383   22.0864  -26.8855 N   0  0  0  0  0  0
  -19.0843   21.8196  -26.4765 N   0  0  0  0  0  0
  -22.3007   17.4227  -28.2856 N   0  0  0  0  0  0
  -20.0697   19.2572  -28.9170 N   0  0  0  0  0  0
  -15.6107   22.6182  -26.3971 O   0  0  0  0  0  0
  -20.6572   21.8214  -24.7878 O   0  0  0  0  0  0
  -22.8790   16.6207  -22.9045 O   0  0  0  0  0  0
  -24.0733   18.2228  -27.1090 O   0  0  0  0  0  0
  -18.8147   19.1297  -27.0355 O   0  0  0  0  0  0
  -20.7933   11.8212  -29.9996 H   0  0  0  0  0  0
  -18.8116   12.8311  -28.8929 H   0  0  0  0  0  0
  -22.7721   13.1925  -30.4605 H   0  0  0  0  0  0
  -18.8569   15.1591  -28.1768 H   0  0  0  0  0  0
  -16.6809   23.7590  -24.2490 H   0  0  0  0  0  0
  -18.9022   23.2393  -23.4561 H   0  0  0  0  0  0
  -20.1688   14.0354  -25.3935 H   0  0  0  0  0  0
  -22.1001   15.2431  -26.5001 H   0  0  0  0  0  0
  -22.3676   17.9630  -25.0961 H   0  0  0  0  0  0
  -24.0106   15.4200  -29.2441 H   0  0  0  0  0  0
  -23.5381   15.6855  -30.8909 H   0  0  0  0  0  0
  -23.9774   17.8996  -29.5666 H   0  0  0  0  0  0
  -22.4838   17.8169  -30.3461 H   0  0  0  0  0  0
  -20.4214   17.0127  -27.4090 H   0  0  0  0  0  0
  -18.8566   13.7802  -20.8018 H   0  0  0  0  0  0
  -20.4605   13.8407  -20.0455 H   0  0  0  0  0  0
  -20.0106   12.4754  -21.0397 H   0  0  0  0  0  0
  -19.8669   21.8166  -28.4300 H   0  0  0  0  0  0
  -20.9936   21.2234  -27.2284 H   0  0  0  0  0  0
  -18.9547   17.5071  -29.2499 H   0  0  0  0  0  0
  -20.2849   17.7535  -30.3423 H   0  0  0  0  0  0
  -21.7136   15.4783  -21.1761 H   0  0  0  0  0  0
  -17.4956   21.5840  -27.7258 H   0  0  0  0  0  0
  -20.6571   19.8433  -29.4906 H   0  0  0  0  0  0
  1  2  1  0  0  0
  1  3  2  0  0  0
  1 36  1  0  0  0
  2  4  2  0  0  0
  2 37  1  0  0  0
  3  5  1  0  0  0
  3 38  1  0  0  0
  4  6  1  0  0  0
  4 39  1  0  0  0
  5  6  2  0  0  0
  5 19  1  0  0  0
  6 21  1  0  0  0
  7  8  2  0  0  0
  7 11  1  0  0  0
  7 40  1  0  0  0
  8 12  1  0  0  0
  8 41  1  0  0  0
  9 10  2  0  0  0
  9 25  1  0  0  0
  9 42  1  0  0  0
 10 13  1  0  0  0
 10 15  1  0  0  0
 11 27  1  0  0  0
 11 31  2  0  0  0
 12 28  1  0  0  0
 12 32  2  0  0  0
 13 26  1  0  0  0
 13 33  2  0  0  0
 14 22  1  0  0  0
 14 25  2  0  0  0
 14 26  1  0  0  0
 15 16  2  0  0  0
 15 43  1  0  0  0
 16 17  1  0  0  0
 16 44  1  0  0  0
 17 29  1  0  0  0
 17 34  2  0  0  0
 18 23  1  0  0  0
 18 30  1  0  0  0
 18 35  2  0  0  0
 19 20  1  0  0  0
 19 45  1  0  0  0
 19 46  1  0  0  0
 20 29  1  0  0  0
 20 47  1  0  0  0
 20 48  1  0  0  0
 21 24  1  0  0  0
 21 29  1  0  0  0
 21 49  1  0  0  0
 22 50  1  0  0  0
 22 51  1  0  0  0
 22 52  1  0  0  0
 23 28  1  0  0  0
 23 53  1  0  0  0
 23 54  1  0  0  0
 24 30  1  0  0  0
 24 55  1  0  0  0
 24 56  1  0  0  0
 26 57  1  0  0  0
 27 28  1  0  0  0
 27 58  1  0  0  0
 30 59  1  0  0  0
M  END
> <s_i_glide_gridfile>
Cov2_glide-grid_1

> <i_i_glide_lignum>
58

> <i_i_glide_rotatable_bonds>
8

> <r_i_docking_score>
-7.66411

> <r_i_glide_ligand_efficiency>
-0.218974

> <r_i_glide_ligand_efficiency_sa>
-0.71628

> <r_i_glide_ligand_efficiency_ln>
-1.68244

> <r_i_glide_gscore>
-7.66411

> <r_i_glide_lipo>
-3.0207

> <r_i_glide_hbond>
-0.53951

> <r_i_glide_metal>
-0

> <r_i_glide_rewards>
-0.884398

> <r_i_glide_evdw>
-51.6082

> <r_i_glide_ecoul>
-8.42293

> <r_i_glide_erotb>
0.624349

> <r_i_glide_esite>
0

> <r_i_glide_emodel>
-78.5051

> <r_i_glide_energy>
-60.0311

> <r_i_glide_einternal>
15.0506

> <i_i_glide_confnum>
75

> <i_i_glide_posenum>
146

> <r_i_glide_eff_state_penalty>
0

$$$$
23
                    3D
 Structure written by MMmdl.
 55 58  0  0  1  0            999 V2000
  -23.6113   15.4212  -31.1703 C   0  0  0  0  0  0
  -23.0457   16.6668  -31.4352 C   0  0  0  0  0  0
  -17.9696   22.9348  -25.1123 C   0  0  0  0  0  0
  -18.6818   21.9810  -25.8384 C   0  0  0  0  0  0
  -23.0110   14.5484  -30.2625 C   0  0  0  0  0  0
  -21.8600   17.0373  -30.8020 C   0  0  0  0  0  0
  -16.6351   23.1568  -25.4439 C   0  0  0  0  0  0
  -16.7310   21.6217  -27.1787 C   0  0  0  0  0  0
  -18.0518   21.2818  -26.8798 C   0  0  0  0  0  0
  -21.8425   14.9308  -29.6044 C   0  0  0  0  0  0
  -21.2492   16.1605  -29.9018 C   0  0  0  0  0  0
  -18.8767   13.7286  -21.6125 C   0  0  0  0  0  0
  -20.0705   13.4789  -20.8363 C   0  0  0  0  0  0
  -19.0092   14.5228  -22.6902 C   0  0  0  0  0  0
  -21.2418   14.0575  -21.1964 C   0  0  0  0  0  0
  -21.3520   14.9547  -22.3687 C   0  0  0  0  0  0
  -18.6740   20.1616  -27.6008 C   0  0  0  0  0  0
  -19.8740   19.6232  -27.3101 C   0  0  0  0  0  0
  -20.4502   18.4660  -27.9463 C   0  0  0  0  0  0
  -20.2287   15.0018  -25.6053 C   0  0  0  0  0  0
  -20.9720   14.1322  -28.6594 C   0  0  0  0  0  0
  -19.9343   16.2986  -29.1536 C   0  0  2  0  0  0
  -19.9720   15.1584  -28.0967 C   0  0  1  0  0  0
  -20.2763   15.8981  -24.3522 C   0  0  0  0  0  0
  -16.0144   22.5277  -26.4690 N   0  0  0  0  0  0
  -20.1902   15.1074  -23.1048 N   0  0  0  0  0  0
  -22.4060   13.8421  -20.4953 N   0  0  0  0  0  0
  -19.6107   17.6457  -28.6214 N   0  0  0  0  0  0
  -20.3546   15.6505  -26.7669 N   0  0  0  0  0  0
  -22.4093   15.5303  -22.6606 O   0  0  0  0  0  0
  -21.6381   18.2085  -27.7698 O   0  0  0  0  0  0
  -20.0110   13.7969  -25.5455 O   0  0  0  0  0  0
  -24.5278   15.1413  -31.6649 H   0  0  0  0  0  0
  -23.5154   17.3345  -32.1402 H   0  0  0  0  0  0
  -18.4200   23.4456  -24.2741 H   0  0  0  0  0  0
  -19.7011   21.7730  -25.5531 H   0  0  0  0  0  0
  -23.4630   13.5870  -30.0689 H   0  0  0  0  0  0
  -21.4109   17.9923  -31.0301 H   0  0  0  0  0  0
  -16.0278   23.8245  -24.8504 H   0  0  0  0  0  0
  -16.2030   21.1253  -27.9808 H   0  0  0  0  0  0
  -17.9305   13.2875  -21.3504 H   0  0  0  0  0  0
  -20.0149   12.8326  -19.9699 H   0  0  0  0  0  0
  -18.1795   14.7750  -23.3354 H   0  0  0  0  0  0
  -18.0787   19.7420  -28.3969 H   0  0  0  0  0  0
  -20.5020   20.0370  -26.5354 H   0  0  0  0  0  0
  -20.4350   13.3831  -29.2431 H   0  0  0  0  0  0
  -21.5122   13.5815  -27.8868 H   0  0  0  0  0  0
  -19.1549   16.0382  -29.8715 H   0  0  0  0  0  0
  -18.9812   14.7060  -28.0319 H   0  0  0  0  0  0
  -19.3939   16.5415  -24.3874 H   0  0  0  0  0  0
  -21.1216   16.5894  -24.3784 H   0  0  0  0  0  0
  -22.4396   13.2011  -19.7154 H   0  0  0  0  0  0
  -23.2604   14.3167  -20.7579 H   0  0  0  0  0  0
  -18.6505   17.9341  -28.7339 H   0  0  0  0  0  0
  -20.6848   16.6070  -26.7547 H   0  0  0  0  0  0
  1  2  1  0  0  0
  1  5  2  0  0  0
  1 33  1  0  0  0
  2  6  2  0  0  0
  2 34  1  0  0  0
  3  4  2  0  0  0
  3  7  1  0  0  0
  3 35  1  0  0  0
  4  9  1  0  0  0
  4 36  1  0  0  0
  5 10  1  0  0  0
  5 37  1  0  0  0
  6 11  1  0  0  0
  6 38  1  0  0  0
  7 25  2  0  0  0
  7 39  1  0  0  0
  8  9  2  0  0  0
  8 25  1  0  0  0
  8 40  1  0  0  0
  9 17  1  0  0  0
 10 11  2  0  0  0
 10 21  1  0  0  0
 11 22  1  0  0  0
 12 13  1  0  0  0
 12 14  2  0  0  0
 12 41  1  0  0  0
 13 15  2  0  0  0
 13 42  1  0  0  0
 14 26  1  0  0  0
 14 43  1  0  0  0
 15 16  1  0  0  0
 15 27  1  0  0  0
 16 26  1  0  0  0
 16 30  2  0  0  0
 17 18  2  0  0  0
 17 44  1  0  0  0
 18 19  1  0  0  0
 18 45  1  0  0  0
 19 28  1  0  0  0
 19 31  2  0  0  0
 20 24  1  0  0  0
 20 29  1  0  0  0
 20 32  2  0  0  0
 21 23  1  0  0  0
 21 46  1  0  0  0
 21 47  1  0  0  0
 22 23  1  0  0  0
 22 28  1  0  0  0
 22 48  1  0  0  0
 23 29  1  0  0  0
 23 49  1  0  0  0
 24 26  1  0  0  0
 24 50  1  0  0  0
 24 51  1  0  0  0
 27 52  1  0  0  0
 27 53  1  0  0  0
 28 54  1  0  0  0
 29 55  1  0  0  0
M  END
> <s_i_glide_gridfile>
Cov2_glide-grid_1

> <i_i_glide_lignum>
9

> <i_i_glide_rotatable_bonds>
8

> <r_i_docking_score>
-7.6523

> <r_i_glide_ligand_efficiency>
-0.239134

> <r_i_glide_ligand_efficiency_sa>
-0.759204

> <r_i_glide_ligand_efficiency_ln>
-1.71356

> <r_i_glide_gscore>
-7.6523

> <r_i_glide_lipo>
-3.80918

> <r_i_glide_hbond>
-0.270869

> <r_i_glide_metal>
-0

> <r_i_glide_rewards>
-1.08512

> <r_i_glide_evdw>
-51.86

> <r_i_glide_ecoul>
-4.32222

> <r_i_glide_erotb>
0.754202

> <r_i_glide_esite>
0

> <r_i_glide_emodel>
-77.8476

> <r_i_glide_energy>
-56.1822

> <r_i_glide_einternal>
8.7056

> <i_i_glide_confnum>
180

> <i_i_glide_posenum>
169

> <r_i_glide_eff_state_penalty>
0

$$$$
99
                    3D
 Structure written by MMmdl.
 52 54  0  0  1  0            999 V2000
  -24.2457   17.2038  -31.3603 C   0  0  0  0  0  0
  -24.0099   18.2657  -30.4906 C   0  0  0  0  0  0
  -23.2535   16.2624  -31.6051 C   0  0  0  0  0  0
  -22.7680   18.3949  -29.8748 C   0  0  0  0  0  0
  -22.0116   16.3947  -30.9930 C   0  0  0  0  0  0
  -21.7447   17.4692  -30.1361 C   0  0  0  0  0  0
  -21.0232   15.2619  -21.5380 C   0  0  0  0  0  0
  -21.9131   16.1681  -21.9971 C   0  0  0  0  0  0
  -19.3701   22.5401  -25.5511 C   0  0  0  0  0  0
  -18.0113   23.9516  -24.4053 C   0  0  0  0  0  0
  -18.3799   22.0437  -26.3418 C   0  0  0  0  0  0
  -20.3285   14.3337  -22.4005 C   0  0  0  0  0  0
  -22.2844   16.2838  -23.3921 C   0  0  0  0  0  0
  -17.0286   22.5596  -26.1234 C   0  0  0  0  0  0
  -18.6145   21.0655  -27.4001 C   0  0  0  0  0  0
  -19.7575   21.0269  -28.1177 C   0  0  0  0  0  0
  -20.0104   20.0510  -29.1379 C   0  0  0  0  0  0
  -20.7763   16.1154  -26.5134 C   0  0  0  0  0  0
  -21.8326   15.3704  -25.6751 C   0  0  0  0  0  0
  -19.8400   16.3077  -28.8307 C   0  0  0  0  0  0
  -20.3227   17.6024  -29.5424 C   0  0  2  0  0  0
  -19.1952   23.4903  -24.5882 N   0  0  0  0  0  0
  -16.9641   23.5158  -25.1713 N   0  0  0  0  0  0
  -20.5737   14.5476  -23.7200 N   0  0  0  0  0  0
  -21.5477   15.4744  -24.2296 N   0  0  0  0  0  0
  -20.0796   18.7815  -28.6974 N   0  0  0  0  0  0
  -20.7565   15.7843  -27.8128 N   0  0  0  0  0  0
  -19.6106   13.4220  -22.0013 O   0  0  0  0  0  0
  -23.2097   17.0165  -23.7456 O   0  0  0  0  0  0
  -16.0112   22.1925  -26.7113 O   0  0  0  0  0  0
  -20.1795   20.3822  -30.3097 O   0  0  0  0  0  0
  -20.0109   16.9449  -26.0214 O   0  0  0  0  0  0
  -25.2090   17.1016  -31.8379 H   0  0  0  0  0  0
  -24.7941   18.9815  -30.2917 H   0  0  0  0  0  0
  -23.4375   15.4353  -32.2736 H   0  0  0  0  0  0
  -22.6129   19.2255  -29.2035 H   0  0  0  0  0  0
  -21.2474   15.6637  -31.2032 H   0  0  0  0  0  0
  -20.8070   15.2200  -20.4819 H   0  0  0  0  0  0
  -22.3943   16.8392  -21.2999 H   0  0  0  0  0  0
  -20.3840   22.1846  -25.6643 H   0  0  0  0  0  0
  -17.7979   24.6946  -23.6409 H   0  0  0  0  0  0
  -17.8345   20.3425  -27.6131 H   0  0  0  0  0  0
  -20.5565   21.7332  -27.9669 H   0  0  0  0  0  0
  -22.8085   15.7880  -25.9317 H   0  0  0  0  0  0
  -21.8730   14.3184  -25.9650 H   0  0  0  0  0  0
  -19.6939   15.5173  -29.5679 H   0  0  0  0  0  0
  -18.8437   16.4655  -28.4070 H   0  0  0  0  0  0
  -19.6610   17.7280  -30.4014 H   0  0  0  0  0  0
  -16.0426   23.8702  -24.9667 H   0  0  0  0  0  0
  -20.2019   13.9486  -24.4401 H   0  0  0  0  0  0
  -19.9629   18.6003  -27.7097 H   0  0  0  0  0  0
  -21.4377   15.1127  -28.1378 H   0  0  0  0  0  0
  1  2  1  0  0  0
  1  3  2  0  0  0
  1 33  1  0  0  0
  2  4  2  0  0  0
  2 34  1  0  0  0
  3  5  1  0  0  0
  3 35  1  0  0  0
  4  6  1  0  0  0
  4 36  1  0  0  0
  5  6  2  0  0  0
  5 37  1  0  0  0
  6 21  1  0  0  0
  7  8  2  0  0  0
  7 12  1  0  0  0
  7 38  1  0  0  0
  8 13  1  0  0  0
  8 39  1  0  0  0
  9 11  2  0  0  0
  9 22  1  0  0  0
  9 40  1  0  0  0
 10 22  2  0  0  0
 10 23  1  0  0  0
 10 41  1  0  0  0
 11 14  1  0  0  0
 11 15  1  0  0  0
 12 24  1  0  0  0
 12 28  2  0  0  0
 13 25  1  0  0  0
 13 29  2  0  0  0
 14 23  1  0  0  0
 14 30  2  0  0  0
 15 16  2  0  0  0
 15 42  1  0  0  0
 16 17  1  0  0  0
 16 43  1  0  0  0
 17 26  1  0  0  0
 17 31  2  0  0  0
 18 19  1  0  0  0
 18 27  1  0  0  0
 18 32  2  0  0  0
 19 25  1  0  0  0
 19 44  1  0  0  0
 19 45  1  0  0  0
 20 21  1  0  0  0
 20 27  1  0  0  0
 20 46  1  0  0  0
 20 47  1  0  0  0
 21 26  1  0  0  0
 21 48  1  0  0  0
 23 49  1  0  0  0
 24 25  1  0  0  0
 24 50  1  0  0  0
 26 51  1  0  0  0
 27 52  1  0  0  0
M  END
> <s_i_glide_gridfile>
Cov2_glide-grid_1

> <i_i_glide_lignum>
89

> <i_i_glide_rotatable_bonds>
10

> <r_i_docking_score>
-7.6473

> <r_i_glide_ligand_efficiency>
-0.238978

> <r_i_glide_ligand_efficiency_sa>
-0.758709

> <r_i_glide_ligand_efficiency_ln>
-1.71244

> <r_i_glide_gscore>
-7.6473

> <r_i_glide_lipo>
-2.17886

> <r_i_glide_hbond>
-0.877479

> <r_i_glide_metal>
-0

> <r_i_glide_rewards>
-0.935138

> <r_i_glide_evdw>
-46.16

> <r_i_glide_ecoul>
-12.7423

> <r_i_glide_erotb>
0.732577

> <r_i_glide_esite>
-0.169058

> <r_i_glide_emodel>
-81.903

> <r_i_glide_energy>
-58.9023

> <r_i_glide_einternal>
8.48256

> <i_i_glide_confnum>
46

> <i_i_glide_posenum>
149

> <r_i_glide_eff_state_penalty>
0

$$$$
58
                    3D
 Structure written by MMmdl.
 55 58  0  0  1  0            999 V2000
  -21.9335   13.5675  -30.0015 C   0  0  0  0  0  0
  -21.5922   13.2089  -28.6980 C   0  0  0  0  0  0
  -22.3729   14.8612  -30.2789 C   0  0  0  0  0  0
  -21.7484   14.1212  -27.6545 C   0  0  0  0  0  0
  -22.4626   15.7979  -29.2502 C   0  0  0  0  0  0
  -22.2070   15.4140  -27.9248 C   0  0  0  0  0  0
  -18.9839   13.7520  -21.6050 C   0  0  0  0  0  0
  -20.0246   13.4216  -20.6507 C   0  0  0  0  0  0
  -16.9431   21.1813  -26.8195 C   0  0  0  0  0  0
  -19.2716   14.7169  -22.4973 C   0  0  0  0  0  0
  -16.3939   23.0231  -25.6018 C   0  0  0  0  0  0
  -18.2399   21.1631  -26.4077 C   0  0  0  0  0  0
  -21.1880   14.1144  -20.6551 C   0  0  0  0  0  0
  -18.6562   22.2115  -25.4729 C   0  0  0  0  0  0
  -21.4474   15.2208  -21.6017 C   0  0  0  0  0  0
  -19.2326   20.1708  -26.8170 C   0  0  0  0  0  0
  -19.0839   19.2688  -27.8153 C   0  0  0  0  0  0
  -20.0754   18.2758  -28.1546 C   0  0  0  0  0  0
  -21.6720   15.9966  -24.6928 C   0  0  0  0  0  0
  -22.9181   17.2426  -29.3125 C   0  0  0  0  0  0
  -22.5564   16.5599  -26.9805 C   0  0  2  0  0  0
  -22.5756   17.7920  -27.9187 C   0  0  1  0  0  0
  -20.6752   16.4477  -23.6046 C   0  0  0  0  0  0
  -16.0132   22.0927  -26.4034 N   0  0  0  0  0  0
  -17.6796   23.0870  -25.1586 N   0  0  0  0  0  0
  -20.4587   15.4196  -22.5590 N   0  0  0  0  0  0
  -22.2150   13.8212  -19.7864 N   0  0  0  0  0  0
  -21.3544   18.6257  -27.9010 N   0  0  0  0  0  0
  -21.6901   16.7470  -25.8028 N   0  0  0  0  0  0
  -19.7797   22.3232  -24.9924 O   0  0  0  0  0  0
  -22.4748   15.9119  -21.5445 O   0  0  0  0  0  0
  -19.7402   17.1743  -28.5823 O   0  0  0  0  0  0
  -22.4058   15.0229  -24.5438 O   0  0  0  0  0  0
  -21.8344   12.8453  -30.8005 H   0  0  0  0  0  0
  -21.2104   12.2214  -28.5034 H   0  0  0  0  0  0
  -22.6107   15.1350  -31.2976 H   0  0  0  0  0  0
  -21.5203   13.8073  -26.6451 H   0  0  0  0  0  0
  -18.0172   13.2684  -21.5908 H   0  0  0  0  0  0
  -19.8760   12.6219  -19.9388 H   0  0  0  0  0  0
  -16.5760   20.4320  -27.5051 H   0  0  0  0  0  0
  -18.5486   15.0606  -23.2276 H   0  0  0  0  0  0
  -15.7159   23.8004  -25.2502 H   0  0  0  0  0  0
  -20.1614   20.1579  -26.2551 H   0  0  0  0  0  0
  -18.1807   19.2100  -28.4017 H   0  0  0  0  0  0
  -23.9990   17.2672  -29.4665 H   0  0  0  0  0  0
  -22.4701   17.8252  -30.1178 H   0  0  0  0  0  0
  -23.5834   16.3823  -26.6484 H   0  0  0  0  0  0
  -23.3901   18.4494  -27.6062 H   0  0  0  0  0  0
  -19.7266   16.7460  -24.0503 H   0  0  0  0  0  0
  -21.0691   17.3530  -23.1422 H   0  0  0  0  0  0
  -17.9381   23.7835  -24.4772 H   0  0  0  0  0  0
  -22.1739   13.0119  -19.1803 H   0  0  0  0  0  0
  -23.0682   14.3661  -19.7973 H   0  0  0  0  0  0
  -21.5110   19.5916  -27.6586 H   0  0  0  0  0  0
  -21.0108   17.4876  -25.8836 H   0  0  0  0  0  0
  1  2  1  0  0  0
  1  3  2  0  0  0
  1 34  1  0  0  0
  2  4  2  0  0  0
  2 35  1  0  0  0
  3  5  1  0  0  0
  3 36  1  0  0  0
  4  6  1  0  0  0
  4 37  1  0  0  0
  5  6  2  0  0  0
  5 20  1  0  0  0
  6 21  1  0  0  0
  7  8  1  0  0  0
  7 10  2  0  0  0
  7 38  1  0  0  0
  8 13  2  0  0  0
  8 39  1  0  0  0
  9 12  2  0  0  0
  9 24  1  0  0  0
  9 40  1  0  0  0
 10 26  1  0  0  0
 10 41  1  0  0  0
 11 24  2  0  0  0
 11 25  1  0  0  0
 11 42  1  0  0  0
 12 14  1  0  0  0
 12 16  1  0  0  0
 13 15  1  0  0  0
 13 27  1  0  0  0
 14 25  1  0  0  0
 14 30  2  0  0  0
 15 26  1  0  0  0
 15 31  2  0  0  0
 16 17  2  0  0  0
 16 43  1  0  0  0
 17 18  1  0  0  0
 17 44  1  0  0  0
 18 28  1  0  0  0
 18 32  2  0  0  0
 19 23  1  0  0  0
 19 29  1  0  0  0
 19 33  2  0  0  0
 20 22  1  0  0  0
 20 45  1  0  0  0
 20 46  1  0  0  0
 21 22  1  0  0  0
 21 29  1  0  0  0
 21 47  1  0  0  0
 22 28  1  0  0  0
 22 48  1  0  0  0
 23 26  1  0  0  0
 23 49  1  0  0  0
 23 50  1  0  0  0
 25 51  1  0  0  0
 27 52  1  0  0  0
 27 53  1  0  0  0
 28 54  1  0  0  0
 29 55  1  0  0  0
M  END
> <s_i_glide_gridfile>
Cov2_glide-grid_1

> <i_i_glide_lignum>
57

> <i_i_glide_rotatable_bonds>
8

> <r_i_docking_score>
-7.61611

> <r_i_glide_ligand_efficiency>
-0.230791

> <r_i_glide_ligand_efficiency_sa>
-0.74027

> <r_i_glide_ligand_efficiency_ln>
-1.69378

> <r_i_glide_gscore>
-7.61611

> <r_i_glide_lipo>
-3.30862

> <r_i_glide_hbond>
-0.32

> <r_i_glide_metal>
-0

> <r_i_glide_rewards>
-0.794965

> <r_i_glide_evdw>
-49.8404

> <r_i_glide_ecoul>
-8.90908

> <r_i_glide_erotb>
0.702952

> <r_i_glide_esite>
-0.0670929

> <r_i_glide_emodel>
-83.28

> <r_i_glide_energy>
-58.7494

> <r_i_glide_einternal>
5.94356

> <i_i_glide_confnum>
62

> <i_i_glide_posenum>
345

> <r_i_glide_eff_state_penalty>
0

$$$$
97
                    3D
 Structure written by MMmdl.
 55 58  0  0  1  0            999 V2000
  -21.0521   13.0218  -29.5994 C   0  0  0  0  0  0
  -22.2966   13.1164  -28.9863 C   0  0  0  0  0  0
  -20.1477   14.0789  -29.5342 C   0  0  0  0  0  0
  -22.6522   14.2698  -28.2924 C   0  0  0  0  0  0
  -19.6112   16.3811  -28.7977 C   0  0  0  0  0  0
  -19.9718   17.5341  -28.1043 C   0  0  0  0  0  0
  -22.0964   16.5525  -27.5207 C   0  0  0  0  0  0
  -20.4915   15.2759  -28.8597 C   0  0  0  0  0  0
  -21.7619   15.3684  -28.2194 C   0  0  0  0  0  0
  -21.2095   17.6329  -27.4558 C   0  0  0  0  0  0
  -19.3008   22.7141  -24.4409 C   0  0  0  0  0  0
  -18.1906   21.4994  -26.2167 C   0  0  0  0  0  0
  -18.2572   23.5636  -24.4413 C   0  0  0  0  0  0
  -19.2782   21.5985  -25.3930 C   0  0  0  0  0  0
  -21.9305   20.3817  -31.6674 C   0  0  0  0  0  0
  -21.5557   19.1880  -32.1532 C   0  0  0  0  0  0
  -17.0398   22.4006  -26.1495 C   0  0  0  0  0  0
  -21.1591   21.4081  -32.3416 C   0  0  0  0  0  0
  -20.3622   20.6240  -25.3660 C   0  0  0  0  0  0
  -22.5473   20.6714  -29.2209 C   0  0  0  0  0  0
  -22.0219   17.7778  -31.8618 C   0  0  0  0  0  0
  -23.0208   20.7787  -30.6761 C   0  0  0  0  0  0
  -22.9770   19.4880  -27.0400 C   0  0  0  0  0  0
  -21.6111   18.8653  -26.6239 C   0  0  2  0  0  0
  -17.1674   23.4209  -25.2562 N   0  0  0  0  0  0
  -20.5862   19.4015  -33.1179 N   0  0  0  0  0  0
  -20.5580   19.8865  -26.4797 N   0  0  0  0  0  0
  -23.1777   19.7566  -28.4673 N   0  0  0  0  0  0
  -16.0108   22.2214  -26.7963 O   0  0  0  0  0  0
  -21.2115   22.6215  -32.1647 O   0  0  0  0  0  0
  -21.0633   20.4690  -24.3641 O   0  0  0  0  0  0
  -21.6622   21.4188  -28.8008 O   0  0  0  0  0  0
  -20.3569   20.7970  -33.2020 O   0  0  0  0  0  0
  -20.7844   12.1195  -30.1282 H   0  0  0  0  0  0
  -22.9862   12.2863  -29.0401 H   0  0  0  0  0  0
  -19.1790   13.9946  -30.0034 H   0  0  0  0  0  0
  -23.6108   14.3381  -27.8043 H   0  0  0  0  0  0
  -18.6490   16.3188  -29.2853 H   0  0  0  0  0  0
  -19.2621   18.3468  -28.0704 H   0  0  0  0  0  0
  -23.0543   16.6007  -27.0231 H   0  0  0  0  0  0
  -20.1054   22.8414  -23.7291 H   0  0  0  0  0  0
  -18.0990   20.6879  -26.9225 H   0  0  0  0  0  0
  -18.1362   24.3727  -23.7316 H   0  0  0  0  0  0
  -22.8484   17.7804  -31.1517 H   0  0  0  0  0  0
  -22.3540   17.2843  -32.7759 H   0  0  0  0  0  0
  -21.2136   17.1918  -31.4258 H   0  0  0  0  0  0
  -23.3807   21.7933  -30.8563 H   0  0  0  0  0  0
  -23.8826   20.1306  -30.8452 H   0  0  0  0  0  0
  -23.1639   20.4026  -26.4733 H   0  0  0  0  0  0
  -23.7782   18.8112  -26.7405 H   0  0  0  0  0  0
  -21.7590   18.4326  -25.6299 H   0  0  0  0  0  0
  -16.3428   23.9891  -25.1222 H   0  0  0  0  0  0
  -19.6843   18.9526  -33.1587 H   0  0  0  0  0  0
  -20.0390   20.1197  -27.3123 H   0  0  0  0  0  0
  -23.8761   19.1855  -28.9204 H   0  0  0  0  0  0
  1  2  1  0  0  0
  1  3  2  0  0  0
  1 34  1  0  0  0
  2  4  2  0  0  0
  2 35  1  0  0  0
  3  8  1  0  0  0
  3 36  1  0  0  0
  4  9  1  0  0  0
  4 37  1  0  0  0
  5  6  2  0  0  0
  5  8  1  0  0  0
  5 38  1  0  0  0
  6 10  1  0  0  0
  6 39  1  0  0  0
  7  9  1  0  0  0
  7 10  2  0  0  0
  7 40  1  0  0  0
  8  9  2  0  0  0
 10 24  1  0  0  0
 11 13  2  0  0  0
 11 14  1  0  0  0
 11 41  1  0  0  0
 12 14  2  0  0  0
 12 17  1  0  0  0
 12 42  1  0  0  0
 13 25  1  0  0  0
 13 43  1  0  0  0
 14 19  1  0  0  0
 15 16  2  0  0  0
 15 18  1  0  0  0
 15 22  1  0  0  0
 16 21  1  0  0  0
 16 26  1  0  0  0
 17 25  1  0  0  0
 17 29  2  0  0  0
 18 30  2  0  0  0
 18 33  1  0  0  0
 19 27  1  0  0  0
 19 31  2  0  0  0
 20 22  1  0  0  0
 20 28  1  0  0  0
 20 32  2  0  0  0
 21 44  1  0  0  0
 21 45  1  0  0  0
 21 46  1  0  0  0
 22 47  1  0  0  0
 22 48  1  0  0  0
 23 24  1  0  0  0
 23 28  1  0  0  0
 23 49  1  0  0  0
 23 50  1  0  0  0
 24 27  1  0  0  0
 24 51  1  0  0  0
 25 52  1  0  0  0
 26 33  1  0  0  0
 26 53  1  0  0  0
 27 54  1  0  0  0
 28 55  1  0  0  0
M  END
> <s_i_glide_gridfile>
Cov2_glide-grid_1

> <i_i_glide_lignum>
87

> <i_i_glide_rotatable_bonds>
9

> <r_i_docking_score>
-7.60428

> <r_i_glide_ligand_efficiency>
-0.230433

> <r_i_glide_ligand_efficiency_sa>
-0.739121

> <r_i_glide_ligand_efficiency_ln>
-1.69115

> <r_i_glide_gscore>
-7.60428

> <r_i_glide_lipo>
-2.9075

> <r_i_glide_hbond>
-0.65496

> <r_i_glide_metal>
-0

> <r_i_glide_rewards>
-0.365078

> <r_i_glide_evdw>
-49.0629

> <r_i_glide_ecoul>
-12.3854

> <r_i_glide_erotb>
0.702961

> <r_i_glide_esite>
-0.0687441

> <r_i_glide_emodel>
-86.9424

> <r_i_glide_energy>
-61.4483

> <r_i_glide_einternal>
7.20334

> <i_i_glide_confnum>
149

> <i_i_glide_posenum>
319

> <r_i_glide_eff_state_penalty>
0

$$$$
41
                    3D
 Structure written by MMmdl.
 52 55  0  0  1  0            999 V2000
  -22.5235   13.7163  -29.9875 C   0  0  0  0  0  0
  -21.4988   13.6429  -29.0456 C   0  0  0  0  0  0
  -22.8102   14.9200  -30.6262 C   0  0  0  0  0  0
  -20.7687   14.7867  -28.7320 C   0  0  0  0  0  0
  -22.0782   16.0618  -30.3155 C   0  0  0  0  0  0
  -19.8300   22.5224  -24.6954 C   0  0  0  0  0  0
  -17.4965   20.8603  -27.1945 C   0  0  0  0  0  0
  -16.4857   22.6298  -26.0567 C   0  0  0  0  0  0
  -19.3060   23.5929  -24.0015 C   0  0  0  0  0  0
  -18.8110   22.0389  -25.5828 C   0  0  0  0  0  0
  -18.7256   20.9909  -26.5264 C   0  0  0  0  0  0
  -21.0581   16.0107  -29.3519 C   0  0  0  0  0  0
  -17.6705   22.8661  -25.3623 C   0  0  0  0  0  0
  -23.2259   23.4212  -32.1888 C   0  0  0  0  0  0
  -22.6444   23.4020  -30.9729 C   0  0  0  0  0  0
  -22.8758   22.4877  -33.2319 C   0  0  0  0  0  0
  -21.6107   22.4567  -30.6051 C   0  0  0  0  0  0
  -19.8727   20.0725  -26.8443 C   0  0  0  0  0  0
  -20.9824   19.2836  -30.2853 C   0  0  0  0  0  0
  -20.4794   20.3347  -31.2996 C   0  0  0  0  0  0
  -20.4889   17.7579  -27.5583 C   0  0  0  0  0  0
  -20.1999   17.2358  -28.9917 C   0  0  2  0  0  0
  -16.4111   21.6387  -26.9735 N   0  0  0  0  0  0
  -18.0105   23.7940  -24.4018 N   0  0  0  0  0  0
  -22.0929   21.4653  -32.7977 N   0  0  0  0  0  0
  -21.4592   21.4239  -31.5067 N   0  0  0  0  0  0
  -19.5465   18.7993  -27.1292 N   0  0  0  0  0  0
  -20.1055   18.3056  -30.0022 N   0  0  0  0  0  0
  -23.2114   22.6211  -34.4014 O   0  0  0  0  0  0
  -20.9152   22.6186  -29.6021 O   0  0  0  0  0  0
  -21.0294   20.4899  -26.8160 O   0  0  0  0  0  0
  -22.0964   19.3587  -29.7688 O   0  0  0  0  0  0
  -23.0871   12.8292  -30.2328 H   0  0  0  0  0  0
  -21.2707   12.7030  -28.5623 H   0  0  0  0  0  0
  -23.5970   14.9724  -31.3653 H   0  0  0  0  0  0
  -19.9736   14.7151  -28.0027 H   0  0  0  0  0  0
  -22.3156   16.9798  -30.8313 H   0  0  0  0  0  0
  -20.8238   22.1224  -24.5693 H   0  0  0  0  0  0
  -17.3551   20.1092  -27.9608 H   0  0  0  0  0  0
  -15.6088   23.2397  -25.9007 H   0  0  0  0  0  0
  -19.7289   24.2100  -23.2214 H   0  0  0  0  0  0
  -23.9938   24.1490  -32.4055 H   0  0  0  0  0  0
  -22.9597   24.1166  -30.2288 H   0  0  0  0  0  0
  -20.2476   19.8270  -32.2368 H   0  0  0  0  0  0
  -19.5370   20.7473  -30.9351 H   0  0  0  0  0  0
  -21.5258   18.0979  -27.4992 H   0  0  0  0  0  0
  -20.4177   16.9391  -26.8396 H   0  0  0  0  0  0
  -19.1758   16.8552  -28.9731 H   0  0  0  0  0  0
  -17.4009   24.4725  -23.9609 H   0  0  0  0  0  0
  -21.6901   20.7992  -33.4399 H   0  0  0  0  0  0
  -18.5852   18.5208  -27.0161 H   0  0  0  0  0  0
  -19.3241   18.2066  -30.6292 H   0  0  0  0  0  0
  1  2  1  0  0  0
  1  3  2  0  0  0
  1 33  1  0  0  0
  2  4  2  0  0  0
  2 34  1  0  0  0
  3  5  1  0  0  0
  3 35  1  0  0  0
  4 12  1  0  0  0
  4 36  1  0  0  0
  5 12  2  0  0  0
  5 37  1  0  0  0
  6  9  2  0  0  0
  6 10  1  0  0  0
  6 38  1  0  0  0
  7 11  1  0  0  0
  7 23  2  0  0  0
  7 39  1  0  0  0
  8 13  2  0  0  0
  8 23  1  0  0  0
  8 40  1  0  0  0
  9 24  1  0  0  0
  9 41  1  0  0  0
 10 11  2  0  0  0
 10 13  1  0  0  0
 11 18  1  0  0  0
 12 22  1  0  0  0
 13 24  1  0  0  0
 14 15  2  0  0  0
 14 16  1  0  0  0
 14 42  1  0  0  0
 15 17  1  0  0  0
 15 43  1  0  0  0
 16 25  1  0  0  0
 16 29  2  0  0  0
 17 26  1  0  0  0
 17 30  2  0  0  0
 18 27  1  0  0  0
 18 31  2  0  0  0
 19 20  1  0  0  0
 19 28  1  0  0  0
 19 32  2  0  0  0
 20 26  1  0  0  0
 20 44  1  0  0  0
 20 45  1  0  0  0
 21 22  1  0  0  0
 21 27  1  0  0  0
 21 46  1  0  0  0
 21 47  1  0  0  0
 22 28  1  0  0  0
 22 48  1  0  0  0
 24 49  1  0  0  0
 25 26  1  0  0  0
 25 50  1  0  0  0
 27 51  1  0  0  0
 28 52  1  0  0  0
M  END
> <s_i_glide_gridfile>
Cov2_glide-grid_1

> <i_i_glide_lignum>
39

> <i_i_glide_rotatable_bonds>
9

> <r_i_docking_score>
-7.59012

> <r_i_glide_ligand_efficiency>
-0.237191

> <r_i_glide_ligand_efficiency_sa>
-0.753035

> <r_i_glide_ligand_efficiency_ln>
-1.69963

> <r_i_glide_gscore>
-7.59012

> <r_i_glide_lipo>
-2.64282

> <r_i_glide_hbond>
-0.977399

> <r_i_glide_metal>
-0

> <r_i_glide_rewards>
-0.723641

> <r_i_glide_evdw>
-48.6092

> <r_i_glide_ecoul>
-9.112

> <r_i_glide_erotb>
0.638462

> <r_i_glide_esite>
-0.0874527

> <r_i_glide_emodel>
-82.1701

> <r_i_glide_energy>
-57.7212

> <r_i_glide_einternal>
3.89869

> <i_i_glide_confnum>
70

> <i_i_glide_posenum>
394

> <r_i_glide_eff_state_penalty>
0

$$$$
3
                    3D
 Structure written by MMmdl.
 60 63  0  0  1  0            999 V2000
  -26.1951   19.7562  -30.8446 C   0  0  0  0  0  0
  -25.4852   19.4157  -31.9914 C   0  0  0  0  0  0
  -25.5732   19.7537  -29.5981 C   0  0  0  0  0  0
  -24.1394   19.0714  -31.9109 C   0  0  0  0  0  0
  -23.5456   19.3609  -28.2290 C   0  0  0  0  0  0
  -22.2014   19.0050  -28.1525 C   0  0  0  0  0  0
  -22.1060   18.7196  -30.5469 C   0  0  0  0  0  0
  -24.2061   19.3985  -29.4814 C   0  0  0  0  0  0
  -23.4754   19.0601  -30.6596 C   0  0  0  0  0  0
  -21.4696   18.6918  -29.3024 C   0  0  0  0  0  0
  -20.1934   13.6522  -23.6598 C   0  0  0  0  0  0
  -20.9161   14.6226  -24.2862 C   0  0  0  0  0  0
  -21.8169   15.4207  -23.4547 C   0  0  0  0  0  0
  -18.4597   23.6199  -24.8228 C   0  0  0  0  0  0
  -21.0697   14.0738  -21.6024 C   0  0  0  0  0  0
  -17.0115   22.3722  -26.0102 C   0  0  0  0  0  0
  -20.8198   14.9507  -25.7071 C   0  0  0  0  0  0
  -20.0114   14.3396  -26.6041 C   0  0  0  0  0  0
  -19.8732   14.7540  -27.9819 C   0  0  0  0  0  0
  -19.1050   20.1184  -27.6658 C   0  0  0  0  0  0
  -19.2087   22.4078  -25.3040 C   0  0  0  0  0  0
  -21.2702   13.7801  -20.1392 C   0  0  0  0  0  0
  -18.2640   20.2763  -26.3861 C   0  0  0  0  0  0
  -19.7617   16.8077  -29.4151 C   0  0  0  0  0  0
  -19.9732   18.3375  -29.2516 C   0  0  2  0  0  0
  -20.2842   13.3592  -22.3260 N   0  0  0  0  0  0
  -21.8061   15.0808  -22.1497 N   0  0  0  0  0  0
  -17.1895   23.4233  -25.1966 N   0  0  0  0  0  0
  -18.1590   21.6775  -25.9546 N   0  0  0  0  0  0
  -20.0098   16.0772  -28.1740 N   0  0  0  0  0  0
  -19.2150   18.8488  -28.0932 N   0  0  0  0  0  0
  -22.5686   16.3126  -23.8364 O   0  0  0  0  0  0
  -18.9219   24.5617  -24.1884 O   0  0  0  0  0  0
  -16.0107   22.1127  -26.6713 O   0  0  0  0  0  0
  -19.5824   13.9611  -28.8756 O   0  0  0  0  0  0
  -19.6305   21.0783  -28.2361 O   0  0  0  0  0  0
  -27.2409   20.0178  -30.9216 H   0  0  0  0  0  0
  -25.9803   19.4171  -32.9520 H   0  0  0  0  0  0
  -26.1346   20.0084  -28.7112 H   0  0  0  0  0  0
  -23.5919   18.8027  -32.8025 H   0  0  0  0  0  0
  -24.0941   19.6069  -27.3305 H   0  0  0  0  0  0
  -21.7307   18.9804  -27.1825 H   0  0  0  0  0  0
  -21.5559   18.4735  -31.4459 H   0  0  0  0  0  0
  -19.4992   13.0387  -24.2151 H   0  0  0  0  0  0
  -21.4395   15.7686  -26.0581 H   0  0  0  0  0  0
  -19.3985   13.4918  -26.3416 H   0  0  0  0  0  0
  -20.0105   22.6233  -26.0049 H   0  0  0  0  0  0
  -19.6050   21.8392  -24.4626 H   0  0  0  0  0  0
  -20.3526   13.4187  -19.6737 H   0  0  0  0  0  0
  -21.6102   14.6565  -19.6017 H   0  0  0  0  0  0
  -22.0384   13.0210  -20.0079 H   0  0  0  0  0  0
  -18.7132   19.6880  -25.5869 H   0  0  0  0  0  0
  -17.2736   19.8652  -26.5812 H   0  0  0  0  0  0
  -18.7312   16.6147  -29.7123 H   0  0  0  0  0  0
  -20.3902   16.4091  -30.2159 H   0  0  0  0  0  0
  -19.5217   18.8173  -30.1211 H   0  0  0  0  0  0
  -22.4180   15.6301  -21.5724 H   0  0  0  0  0  0
  -16.4367   24.0240  -24.8909 H   0  0  0  0  0  0
  -20.2822   16.6388  -27.3826 H   0  0  0  0  0  0
  -18.6001   18.1701  -27.6710 H   0  0  0  0  0  0
  1  2  1  0  0  0
  1  3  2  0  0  0
  1 37  1  0  0  0
  2  4  2  0  0  0
  2 38  1  0  0  0
  3  8  1  0  0  0
  3 39  1  0  0  0
  4  9  1  0  0  0
  4 40  1  0  0  0
  5  6  2  0  0  0
  5  8  1  0  0  0
  5 41  1  0  0  0
  6 10  1  0  0  0
  6 42  1  0  0  0
  7  9  1  0  0  0
  7 10  2  0  0  0
  7 43  1  0  0  0
  8  9  2  0  0  0
 10 25  1  0  0  0
 11 12  2  0  0  0
 11 26  1  0  0  0
 11 44  1  0  0  0
 12 13  1  0  0  0
 12 17  1  0  0  0
 13 27  1  0  0  0
 13 32  2  0  0  0
 14 21  1  0  0  0
 14 28  1  0  0  0
 14 33  2  0  0  0
 15 22  1  0  0  0
 15 26  2  0  0  0
 15 27  1  0  0  0
 16 28  1  0  0  0
 16 29  1  0  0  0
 16 34  2  0  0  0
 17 18  2  0  0  0
 17 45  1  0  0  0
 18 19  1  0  0  0
 18 46  1  0  0  0
 19 30  1  0  0  0
 19 35  2  0  0  0
 20 23  1  0  0  0
 20 31  1  0  0  0
 20 36  2  0  0  0
 21 29  1  0  0  0
 21 47  1  0  0  0
 21 48  1  0  0  0
 22 49  1  0  0  0
 22 50  1  0  0  0
 22 51  1  0  0  0
 23 29  1  0  0  0
 23 52  1  0  0  0
 23 53  1  0  0  0
 24 25  1  0  0  0
 24 30  1  0  0  0
 24 54  1  0  0  0
 24 55  1  0  0  0
 25 31  1  0  0  0
 25 56  1  0  0  0
 27 57  1  0  0  0
 28 58  1  0  0  0
 30 59  1  0  0  0
 31 60  1  0  0  0
M  END
> <s_i_glide_gridfile>
Cov2_glide-grid_1

> <i_i_glide_lignum>
61

> <i_i_glide_rotatable_bonds>
10

> <r_i_docking_score>
-7.58238

> <r_i_glide_ligand_efficiency>
-0.210622

> <r_i_glide_ligand_efficiency_sa>
-0.695458

> <r_i_glide_ligand_efficiency_ln>
-1.65427

> <r_i_glide_gscore>
-7.58238

> <r_i_glide_lipo>
-1.72932

> <r_i_glide_hbond>
-0.549861

> <r_i_glide_metal>
-0

> <r_i_glide_rewards>
-1.69498

> <r_i_glide_evdw>
-55.2057

> <r_i_glide_ecoul>
-9.60679

> <r_i_glide_erotb>
0.681793

> <r_i_glide_esite>
-0.0887154

> <r_i_glide_emodel>
-90.9706

> <r_i_glide_energy>
-64.8125

> <r_i_glide_einternal>
6.52146

> <i_i_glide_confnum>
131

> <i_i_glide_posenum>
214

> <r_i_glide_eff_state_penalty>
0

$$$$
76
                    3D
 Structure written by MMmdl.
 53 56  0  0  1  0            999 V2000
  -22.4107   13.6908  -30.1231 C   0  0  0  0  0  0
  -22.3883   13.4202  -28.7576 C   0  0  0  0  0  0
  -17.6669   23.0470  -25.0775 C   0  0  0  0  0  0
  -18.6111   22.1721  -25.6057 C   0  0  0  0  0  0
  -22.5224   15.0064  -30.5718 C   0  0  0  0  0  0
  -22.4886   14.4553  -27.8304 C   0  0  0  0  0  0
  -16.3781   23.0290  -25.6031 C   0  0  0  0  0  0
  -16.9474   21.3791  -27.1369 C   0  0  0  0  0  0
  -18.2578   21.3049  -26.6466 C   0  0  0  0  0  0
  -22.5981   16.0490  -29.6471 C   0  0  0  0  0  0
  -22.6120   15.7751  -28.2728 C   0  0  0  0  0  0
  -21.3614   14.2364  -20.7615 C   0  0  0  0  0  0
  -22.3297   15.1772  -20.8048 C   0  0  0  0  0  0
  -20.2703   14.1825  -21.7071 C   0  0  0  0  0  0
  -22.4095   16.1885  -21.8406 C   0  0  0  0  0  0
  -19.2553   20.3489  -27.1482 C   0  0  0  0  0  0
  -19.0374   19.3289  -28.0117 C   0  0  0  0  0  0
  -20.0629   18.4034  -28.4327 C   0  0  0  0  0  0
  -22.2865   16.6224  -25.0735 C   0  0  0  0  0  0
  -22.8095   17.5244  -29.9055 C   0  0  0  0  0  0
  -22.8549   17.0562  -27.4870 C   0  0  2  0  0  0
  -22.6025   18.1748  -28.5313 C   0  0  1  0  0  0
  -21.3192   17.0173  -23.9401 C   0  0  0  0  0  0
  -16.0127   22.2210  -26.6291 N   0  0  0  0  0  0
  -20.3855   15.0922  -22.7074 N   0  0  0  0  0  0
  -21.4152   16.0897  -22.7909 N   0  0  0  0  0  0
  -21.3196   18.8912  -28.4069 N   0  0  0  0  0  0
  -22.0734   17.2257  -26.2484 N   0  0  0  0  0  0
  -19.3151   13.4213  -21.6090 O   0  0  0  0  0  0
  -23.3151   17.0220  -21.8608 O   0  0  0  0  0  0
  -19.7906   17.2405  -28.7140 O   0  0  0  0  0  0
  -23.2019   15.8209  -24.8992 O   0  0  0  0  0  0
  -22.3368   12.8800  -30.8334 H   0  0  0  0  0  0
  -22.3111   12.4030  -28.4174 H   0  0  0  0  0  0
  -17.9116   23.7004  -24.2499 H   0  0  0  0  0  0
  -19.6064   22.1588  -25.1849 H   0  0  0  0  0  0
  -22.5438   15.2096  -31.6347 H   0  0  0  0  0  0
  -22.5006   14.2145  -26.7782 H   0  0  0  0  0  0
  -15.6153   23.6754  -25.1899 H   0  0  0  0  0  0
  -16.6115   20.7481  -27.9468 H   0  0  0  0  0  0
  -21.3718   13.4897  -19.9775 H   0  0  0  0  0  0
  -23.1086   15.1727  -20.0571 H   0  0  0  0  0  0
  -20.2525   20.5095  -26.7586 H   0  0  0  0  0  0
  -18.0558   19.1160  -28.4009 H   0  0  0  0  0  0
  -23.8415   17.6690  -30.2262 H   0  0  0  0  0  0
  -22.1704   17.9468  -30.6841 H   0  0  0  0  0  0
  -23.9218   17.0656  -27.2472 H   0  0  0  0  0  0
  -23.3753   18.9369  -28.4057 H   0  0  0  0  0  0
  -20.2952   17.0626  -24.3165 H   0  0  0  0  0  0
  -21.5686   18.0303  -23.6188 H   0  0  0  0  0  0
  -19.6724   15.2165  -23.4106 H   0  0  0  0  0  0
  -21.4081   19.8867  -28.2616 H   0  0  0  0  0  0
  -21.2563   17.8131  -26.3392 H   0  0  0  0  0  0
  1  2  1  0  0  0
  1  5  2  0  0  0
  1 33  1  0  0  0
  2  6  2  0  0  0
  2 34  1  0  0  0
  3  4  2  0  0  0
  3  7  1  0  0  0
  3 35  1  0  0  0
  4  9  1  0  0  0
  4 36  1  0  0  0
  5 10  1  0  0  0
  5 37  1  0  0  0
  6 11  1  0  0  0
  6 38  1  0  0  0
  7 24  2  0  0  0
  7 39  1  0  0  0
  8  9  2  0  0  0
  8 24  1  0  0  0
  8 40  1  0  0  0
  9 16  1  0  0  0
 10 11  2  0  0  0
 10 20  1  0  0  0
 11 21  1  0  0  0
 12 13  2  0  0  0
 12 14  1  0  0  0
 12 41  1  0  0  0
 13 15  1  0  0  0
 13 42  1  0  0  0
 14 25  1  0  0  0
 14 29  2  0  0  0
 15 26  1  0  0  0
 15 30  2  0  0  0
 16 17  2  0  0  0
 16 43  1  0  0  0
 17 18  1  0  0  0
 17 44  1  0  0  0
 18 27  1  0  0  0
 18 31  2  0  0  0
 19 23  1  0  0  0
 19 28  1  0  0  0
 19 32  2  0  0  0
 20 22  1  0  0  0
 20 45  1  0  0  0
 20 46  1  0  0  0
 21 22  1  0  0  0
 21 28  1  0  0  0
 21 47  1  0  0  0
 22 27  1  0  0  0
 22 48  1  0  0  0
 23 26  1  0  0  0
 23 49  1  0  0  0
 23 50  1  0  0  0
 25 26  1  0  0  0
 25 51  1  0  0  0
 27 52  1  0  0  0
 28 53  1  0  0  0
M  END
> <s_i_glide_gridfile>
Cov2_glide-grid_1

> <i_i_glide_lignum>
73

> <i_i_glide_rotatable_bonds>
8

> <r_i_docking_score>
-7.55166

> <r_i_glide_ligand_efficiency>
-0.235989

> <r_i_glide_ligand_efficiency_sa>
-0.749219

> <r_i_glide_ligand_efficiency_ln>
-1.69102

> <r_i_glide_gscore>
-7.55166

> <r_i_glide_lipo>
-3.22507

> <r_i_glide_hbond>
-0.614764

> <r_i_glide_metal>
-0

> <r_i_glide_rewards>
-0.785186

> <r_i_glide_evdw>
-49.3072

> <r_i_glide_ecoul>
-7.3493

> <r_i_glide_erotb>
0.641114

> <r_i_glide_esite>
0

> <r_i_glide_emodel>
-79.4429

> <r_i_glide_energy>
-56.6565

> <r_i_glide_einternal>
7.2093

> <i_i_glide_confnum>
145

> <i_i_glide_posenum>
120

> <r_i_glide_eff_state_penalty>
0

$$$$
46
                    3D
 Structure written by MMmdl.
 56 59  0  0  1  0            999 V2000
  -25.0533   19.4681  -31.4047 C   0  0  0  0  0  0
  -24.5138   20.5180  -30.6585 C   0  0  0  0  0  0
  -24.3238   18.2912  -31.5873 C   0  0  0  0  0  0
  -23.2365   20.4048  -30.1056 C   0  0  0  0  0  0
  -23.0679   18.1571  -30.9960 C   0  0  0  0  0  0
  -22.5053   19.2267  -30.2842 C   0  0  0  0  0  0
  -19.9188   13.6507  -23.7618 C   0  0  0  0  0  0
  -18.6152   23.5157  -24.7824 C   0  0  0  0  0  0
  -19.4547   22.5852  -25.2638 C   0  0  0  0  0  0
  -20.5943   14.6113  -24.4475 C   0  0  0  0  0  0
  -21.5537   15.4154  -23.6776 C   0  0  0  0  0  0
  -16.7789   22.6209  -26.0119 C   0  0  0  0  0  0
  -17.7226   21.5291  -26.5275 C   0  0  0  0  0  0
  -20.9254   14.0725  -21.7685 C   0  0  0  0  0  0
  -20.3132   14.8325  -25.8715 C   0  0  0  0  0  0
  -21.0598   15.5358  -26.7525 C   0  0  0  0  0  0
  -20.6277   15.7726  -28.1110 C   0  0  0  0  0  0
  -20.2825   20.5098  -28.0798 C   0  0  0  0  0  0
  -22.0774   17.0189  -31.1054 C   0  0  0  0  0  0
  -21.0795   18.8832  -29.8694 C   0  0  2  0  0  0
  -21.0476   17.3396  -30.0188 C   0  0  1  0  0  0
  -21.2144   13.7630  -20.3221 C   0  0  0  0  0  0
  -19.9509   20.5204  -26.5708 C   0  0  0  0  0  0
  -20.0851   13.3672  -22.4347 N   0  0  0  0  0  0
  -17.3046   23.5314  -25.1484 N   0  0  0  0  0  0
  -21.6315   15.0700  -22.3710 N   0  0  0  0  0  0
  -19.0536   21.6175  -26.1537 N   0  0  0  0  0  0
  -21.4044   16.6551  -28.7612 N   0  0  0  0  0  0
  -20.6932   19.3106  -28.5159 N   0  0  0  0  0  0
  -22.2693   16.3285  -24.0802 O   0  0  0  0  0  0
  -15.6107   22.6208  -26.3895 O   0  0  0  0  0  0
  -17.2221   20.6221  -27.2007 O   0  0  0  0  0  0
  -19.6081   15.2836  -28.5993 O   0  0  0  0  0  0
  -20.1784   21.5100  -28.7922 O   0  0  0  0  0  0
  -26.0326   19.5686  -31.8485 H   0  0  0  0  0  0
  -25.0799   21.4282  -30.5247 H   0  0  0  0  0  0
  -24.7443   17.4918  -32.1813 H   0  0  0  0  0  0
  -22.8168   21.2371  -29.5609 H   0  0  0  0  0  0
  -19.2054   13.0310  -24.2818 H   0  0  0  0  0  0
  -18.8656   24.2695  -24.0473 H   0  0  0  0  0  0
  -20.4887   22.5065  -24.9660 H   0  0  0  0  0  0
  -19.3972   14.3885  -26.2486 H   0  0  0  0  0  0
  -22.0006   15.9815  -26.4664 H   0  0  0  0  0  0
  -21.6109   17.0578  -32.0921 H   0  0  0  0  0  0
  -22.5059   16.0190  -31.0153 H   0  0  0  0  0  0
  -20.4063   19.3213  -30.6112 H   0  0  0  0  0  0
  -20.0579   17.0323  -30.3667 H   0  0  0  0  0  0
  -20.3370   13.3643  -19.8170 H   0  0  0  0  0  0
  -21.5465   14.6390  -19.7739 H   0  0  0  0  0  0
  -22.0087   13.0215  -20.2471 H   0  0  0  0  0  0
  -20.8823   20.5557  -26.0031 H   0  0  0  0  0  0
  -19.4810   19.5679  -26.3178 H   0  0  0  0  0  0
  -16.6429   24.1748  -24.7281 H   0  0  0  0  0  0
  -22.2752   15.6263  -21.8374 H   0  0  0  0  0  0
  -22.2800   16.9274  -28.3389 H   0  0  0  0  0  0
  -20.7276   18.5675  -27.8340 H   0  0  0  0  0  0
  1  2  1  0  0  0
  1  3  2  0  0  0
  1 35  1  0  0  0
  2  4  2  0  0  0
  2 36  1  0  0  0
  3  5  1  0  0  0
  3 37  1  0  0  0
  4  6  1  0  0  0
  4 38  1  0  0  0
  5  6  2  0  0  0
  5 19  1  0  0  0
  6 20  1  0  0  0
  7 10  2  0  0  0
  7 24  1  0  0  0
  7 39  1  0  0  0
  8  9  2  0  0  0
  8 25  1  0  0  0
  8 40  1  0  0  0
  9 27  1  0  0  0
  9 41  1  0  0  0
 10 11  1  0  0  0
 10 15  1  0  0  0
 11 26  1  0  0  0
 11 30  2  0  0  0
 12 13  1  0  0  0
 12 25  1  0  0  0
 12 31  2  0  0  0
 13 27  1  0  0  0
 13 32  2  0  0  0
 14 22  1  0  0  0
 14 24  2  0  0  0
 14 26  1  0  0  0
 15 16  2  0  0  0
 15 42  1  0  0  0
 16 17  1  0  0  0
 16 43  1  0  0  0
 17 28  1  0  0  0
 17 33  2  0  0  0
 18 23  1  0  0  0
 18 29  1  0  0  0
 18 34  2  0  0  0
 19 21  1  0  0  0
 19 44  1  0  0  0
 19 45  1  0  0  0
 20 21  1  0  0  0
 20 29  1  0  0  0
 20 46  1  0  0  0
 21 28  1  0  0  0
 21 47  1  0  0  0
 22 48  1  0  0  0
 22 49  1  0  0  0
 22 50  1  0  0  0
 23 27  1  0  0  0
 23 51  1  0  0  0
 23 52  1  0  0  0
 25 53  1  0  0  0
 26 54  1  0  0  0
 28 55  1  0  0  0
 29 56  1  0  0  0
M  END
> <s_i_glide_gridfile>
Cov2_glide-grid_1

> <i_i_glide_lignum>
32

> <i_i_glide_rotatable_bonds>
8

> <r_i_docking_score>
-7.47277

> <r_i_glide_ligand_efficiency>
-0.219787

> <r_i_glide_ligand_efficiency_sa>
-0.712025

> <r_i_glide_ligand_efficiency_ln>
-1.65094

> <r_i_glide_gscore>
-7.47277

> <r_i_glide_lipo>
-1.99501

> <r_i_glide_hbond>
-0.63358

> <r_i_glide_metal>
-0

> <r_i_glide_rewards>
-1.0064

> <r_i_glide_evdw>
-51.0979

> <r_i_glide_ecoul>
-12.4528

> <r_i_glide_erotb>
0.659328

> <r_i_glide_esite>
-0.0742881

> <r_i_glide_emodel>
-88.5058

> <r_i_glide_energy>
-63.5508

> <r_i_glide_einternal>
5.95706

> <i_i_glide_confnum>
21

> <i_i_glide_posenum>
128

> <r_i_glide_eff_state_penalty>
0

$$$$
82
                    3D
 Structure written by MMmdl.
 55 58  0  0  1  0            999 V2000
  -20.8635   13.0211  -29.6020 C   0  0  0  0  0  0
  -22.1969   13.3215  -29.8681 C   0  0  0  0  0  0
  -20.0609   13.9057  -28.8855 C   0  0  0  0  0  0
  -22.7297   14.5309  -29.4312 C   0  0  0  0  0  0
  -20.5955   15.1102  -28.4400 C   0  0  0  0  0  0
  -21.9319   15.4342  -28.7176 C   0  0  0  0  0  0
  -22.6095   18.6249  -22.3888 C   0  0  0  0  0  0
  -21.8426   17.6995  -21.7780 C   0  0  0  0  0  0
  -17.6485   22.8151  -25.2121 C   0  0  0  0  0  0
  -18.8201   22.2202  -24.9013 C   0  0  0  0  0  0
  -23.0548   18.4449  -23.7658 C   0  0  0  0  0  0
  -20.6860   15.5298  -21.8815 C   0  0  0  0  0  0
  -21.4166   15.1657  -24.4696 C   0  0  0  0  0  0
  -21.4292   16.4923  -22.4818 C   0  0  0  0  0  0
  -21.8524   16.3141  -23.8882 C   0  0  0  0  0  0
  -22.7095   17.3598  -24.5105 C   0  0  0  0  0  0
  -16.7936   22.3347  -26.2721 C   0  0  0  0  0  0
  -19.3128   21.0469  -25.5968 C   0  0  0  0  0  0
  -20.2506   14.3123  -22.5513 C   0  0  0  0  0  0
  -23.2253   17.2827  -25.8678 C   0  0  0  0  0  0
  -20.2853   19.5450  -28.2189 C   0  0  0  0  0  0
  -18.8939   19.5479  -27.5589 C   0  0  0  0  0  0
  -22.0342   17.9742  -29.0552 C   0  0  0  0  0  0
  -22.5344   16.7568  -28.2318 C   0  0  2  0  0  0
  -20.6361   14.2211  -23.8514 N   0  0  0  0  0  0
  -17.4060   21.4435  -27.0916 N   0  0  0  0  0  0
  -18.6333   20.7715  -26.7686 N   0  0  0  0  0  0
  -22.3178   16.9253  -26.7884 N   0  0  0  0  0  0
  -20.6592   18.3564  -28.7134 N   0  0  0  0  0  0
  -15.6108   22.6211  -26.4015 O   0  0  0  0  0  0
  -20.2232   20.3590  -25.1369 O   0  0  0  0  0  0
  -19.6108   13.4211  -22.0030 O   0  0  0  0  0  0
  -24.3945   17.5499  -26.1478 O   0  0  0  0  0  0
  -21.0052   20.5460  -28.2381 O   0  0  0  0  0  0
  -20.4492   12.0920  -29.9617 H   0  0  0  0  0  0
  -22.8112   12.6220  -30.4151 H   0  0  0  0  0  0
  -19.0285   13.6609  -28.6800 H   0  0  0  0  0  0
  -23.7642   14.7610  -29.6450 H   0  0  0  0  0  0
  -19.9673   15.7873  -27.8812 H   0  0  0  0  0  0
  -22.8911   19.5192  -21.8522 H   0  0  0  0  0  0
  -21.5209   17.8668  -20.7599 H   0  0  0  0  0  0
  -17.3044   23.6673  -24.6392 H   0  0  0  0  0  0
  -19.4127   22.6087  -24.0840 H   0  0  0  0  0  0
  -23.6789   19.2208  -24.1904 H   0  0  0  0  0  0
  -20.4063   15.6447  -20.8455 H   0  0  0  0  0  0
  -21.6589   14.8492  -25.4746 H   0  0  0  0  0  0
  -18.1553   19.4113  -28.3495 H   0  0  0  0  0  0
  -18.8090   18.6777  -26.9060 H   0  0  0  0  0  0
  -22.7271   18.8055  -28.8964 H   0  0  0  0  0  0
  -22.0827   17.7550  -30.1232 H   0  0  0  0  0  0
  -23.6105   16.6891  -28.4126 H   0  0  0  0  0  0
  -20.3552   13.3672  -24.3117 H   0  0  0  0  0  0
  -16.8837   20.9424  -27.7954 H   0  0  0  0  0  0
  -21.3708   16.8054  -26.4695 H   0  0  0  0  0  0
  -19.9621   17.6340  -28.8146 H   0  0  0  0  0  0
  1  2  1  0  0  0
  1  3  2  0  0  0
  1 35  1  0  0  0
  2  4  2  0  0  0
  2 36  1  0  0  0
  3  5  1  0  0  0
  3 37  1  0  0  0
  4  6  1  0  0  0
  4 38  1  0  0  0
  5  6  2  0  0  0
  5 39  1  0  0  0
  6 24  1  0  0  0
  7  8  2  0  0  0
  7 11  1  0  0  0
  7 40  1  0  0  0
  8 14  1  0  0  0
  8 41  1  0  0  0
  9 10  2  0  0  0
  9 17  1  0  0  0
  9 42  1  0  0  0
 10 18  1  0  0  0
 10 43  1  0  0  0
 11 16  2  0  0  0
 11 44  1  0  0  0
 12 14  2  0  0  0
 12 19  1  0  0  0
 12 45  1  0  0  0
 13 15  2  0  0  0
 13 25  1  0  0  0
 13 46  1  0  0  0
 14 15  1  0  0  0
 15 16  1  0  0  0
 16 20  1  0  0  0
 17 26  1  0  0  0
 17 30  2  0  0  0
 18 27  1  0  0  0
 18 31  2  0  0  0
 19 25  1  0  0  0
 19 32  2  0  0  0
 20 28  1  0  0  0
 20 33  2  0  0  0
 21 22  1  0  0  0
 21 29  1  0  0  0
 21 34  2  0  0  0
 22 27  1  0  0  0
 22 47  1  0  0  0
 22 48  1  0  0  0
 23 24  1  0  0  0
 23 29  1  0  0  0
 23 49  1  0  0  0
 23 50  1  0  0  0
 24 28  1  0  0  0
 24 51  1  0  0  0
 25 52  1  0  0  0
 26 27  1  0  0  0
 26 53  1  0  0  0
 28 54  1  0  0  0
 29 55  1  0  0  0
M  END
> <s_i_glide_gridfile>
Cov2_glide-grid_1

> <i_i_glide_lignum>
93

> <i_i_glide_rotatable_bonds>
9

> <r_i_docking_score>
-7.42986

> <r_i_glide_ligand_efficiency>
-0.218525

> <r_i_glide_ligand_efficiency_sa>
-0.707937

> <r_i_glide_ligand_efficiency_ln>
-1.64146

> <r_i_glide_gscore>
-7.42986

> <r_i_glide_lipo>
-2.78969

> <r_i_glide_hbond>
-0.592945

> <r_i_glide_metal>
-0

> <r_i_glide_rewards>
-0.725222

> <r_i_glide_evdw>
-53.2451

> <r_i_glide_ecoul>
-8.21092

> <r_i_glide_erotb>
0.571888

> <r_i_glide_esite>
0

> <r_i_glide_emodel>
-83.8633

> <r_i_glide_energy>
-61.456

> <r_i_glide_einternal>
9.01767

> <i_i_glide_confnum>
72

> <i_i_glide_posenum>
125

> <r_i_glide_eff_state_penalty>
0

$$$$
79
                    3D
 Structure written by MMmdl.
 58 61  0  0  1  0            999 V2000
  -22.0098   13.1200  -30.0017 C   0  0  0  0  0  0
  -22.9235   14.1666  -29.9998 C   0  0  0  0  0  0
  -21.0433   13.0272  -29.0061 C   0  0  0  0  0  0
  -22.8980   15.1242  -28.9891 C   0  0  0  0  0  0
  -20.0276   13.9112  -26.9283 C   0  0  0  0  0  0
  -20.0107   14.8669  -25.9166 C   0  0  0  0  0  0
  -21.8948   16.0061  -26.9032 C   0  0  0  0  0  0
  -20.9933   13.9808  -27.9592 C   0  0  0  0  0  0
  -21.9433   15.0461  -27.9460 C   0  0  0  0  0  0
  -20.9323   15.9168  -25.8938 C   0  0  0  0  0  0
  -22.3222   13.7996  -19.0128 C   0  0  0  0  0  0
  -23.5756   12.7856  -17.4047 C   0  0  0  0  0  0
  -23.3844   14.3891  -19.6266 C   0  0  0  0  0  0
  -19.8393   19.8941  -28.9749 C   0  0  0  0  0  0
  -20.0155   18.7439  -29.6470 C   0  0  0  0  0  0
  -24.7076   14.1164  -19.0653 C   0  0  0  0  0  0
  -20.4002   20.9766  -29.7710 C   0  0  0  0  0  0
  -23.3004   15.2555  -20.8016 C   0  0  0  0  0  0
  -22.2030   15.4520  -21.5664 C   0  0  0  0  0  0
  -22.2340   16.3058  -22.7316 C   0  0  0  0  0  0
  -19.8016   19.5582  -26.4559 C   0  0  0  0  0  0
  -19.6128   17.3166  -29.3463 C   0  0  0  0  0  0
  -19.1096   20.1973  -27.6677 C   0  0  0  0  0  0
  -19.6228   17.7952  -24.6941 C   0  0  0  0  0  0
  -20.9131   16.9429  -24.7534 C   0  0  2  0  0  0
  -22.4108   13.0210  -17.8934 N   0  0  0  0  0  0
  -24.6932   13.3156  -17.9769 N   0  0  0  0  0  0
  -20.7175   19.0206  -30.8068 N   0  0  0  0  0  0
  -21.1117   16.2676  -23.4629 N   0  0  0  0  0  0
  -19.2106   18.4735  -25.9276 N   0  0  0  0  0  0
  -25.7750   14.5357  -19.4987 O   0  0  0  0  0  0
  -20.4101   22.1835  -29.5210 O   0  0  0  0  0  0
  -23.2107   16.9839  -23.0462 O   0  0  0  0  0  0
  -20.8267   20.0604  -25.9984 O   0  0  0  0  0  0
  -20.9279   20.4232  -30.8575 O   0  0  0  0  0  0
  -22.0337   12.3846  -30.7932 H   0  0  0  0  0  0
  -23.6563   14.2391  -30.7900 H   0  0  0  0  0  0
  -20.3270   12.2221  -29.0318 H   0  0  0  0  0  0
  -23.6105   15.9364  -28.9961 H   0  0  0  0  0  0
  -19.3042   13.1081  -26.9255 H   0  0  0  0  0  0
  -19.2667   14.7830  -25.1374 H   0  0  0  0  0  0
  -22.6175   16.8101  -26.9000 H   0  0  0  0  0  0
  -21.3207   13.9525  -19.3863 H   0  0  0  0  0  0
  -23.7059   12.1634  -16.5233 H   0  0  0  0  0  0
  -24.2068   15.7826  -21.0835 H   0  0  0  0  0  0
  -21.2644   14.9644  -21.3487 H   0  0  0  0  0  0
  -18.8119   16.9868  -30.0016 H   0  0  0  0  0  0
  -19.2560   17.2090  -28.3246 H   0  0  0  0  0  0
  -20.4601   16.6492  -29.4861 H   0  0  0  0  0  0
  -19.0127   21.2694  -27.4877 H   0  0  0  0  0  0
  -18.0896   19.8209  -27.7602 H   0  0  0  0  0  0
  -19.7021   18.5323  -23.8911 H   0  0  0  0  0  0
  -18.8103   17.1379  -24.4017 H   0  0  0  0  0  0
  -21.7250   17.6536  -24.9320 H   0  0  0  0  0  0
  -25.6028   13.1287  -17.5921 H   0  0  0  0  0  0
  -20.4596   18.7327  -31.7408 H   0  0  0  0  0  0
  -20.3418   15.7114  -23.1255 H   0  0  0  0  0  0
  -18.4444   18.0593  -26.4351 H   0  0  0  0  0  0
  1  2  1  0  0  0
  1  3  2  0  0  0
  1 36  1  0  0  0
  2  4  2  0  0  0
  2 37  1  0  0  0
  3  8  1  0  0  0
  3 38  1  0  0  0
  4  9  1  0  0  0
  4 39  1  0  0  0
  5  6  2  0  0  0
  5  8  1  0  0  0
  5 40  1  0  0  0
  6 10  1  0  0  0
  6 41  1  0  0  0
  7  9  1  0  0  0
  7 10  2  0  0  0
  7 42  1  0  0  0
  8  9  2  0  0  0
 10 25  1  0  0  0
 11 13  2  0  0  0
 11 26  1  0  0  0
 11 43  1  0  0  0
 12 26  2  0  0  0
 12 27  1  0  0  0
 12 44  1  0  0  0
 13 16  1  0  0  0
 13 18  1  0  0  0
 14 15  2  0  0  0
 14 17  1  0  0  0
 14 23  1  0  0  0
 15 22  1  0  0  0
 15 28  1  0  0  0
 16 27  1  0  0  0
 16 31  2  0  0  0
 17 32  2  0  0  0
 17 35  1  0  0  0
 18 19  2  0  0  0
 18 45  1  0  0  0
 19 20  1  0  0  0
 19 46  1  0  0  0
 20 29  1  0  0  0
 20 33  2  0  0  0
 21 23  1  0  0  0
 21 30  1  0  0  0
 21 34  2  0  0  0
 22 47  1  0  0  0
 22 48  1  0  0  0
 22 49  1  0  0  0
 23 50  1  0  0  0
 23 51  1  0  0  0
 24 25  1  0  0  0
 24 30  1  0  0  0
 24 52  1  0  0  0
 24 53  1  0  0  0
 25 29  1  0  0  0
 25 54  1  0  0  0
 27 55  1  0  0  0
 28 35  1  0  0  0
 28 56  1  0  0  0
 29 57  1  0  0  0
 30 58  1  0  0  0
M  END
> <s_i_glide_gridfile>
Cov2_glide-grid_1

> <i_i_glide_lignum>
85

> <i_i_glide_rotatable_bonds>
10

> <r_i_docking_score>
-7.36422

> <r_i_glide_ligand_efficiency>
-0.210406

> <r_i_glide_ligand_efficiency_sa>
-0.688253

> <r_i_glide_ligand_efficiency_ln>
-1.61661

> <r_i_glide_gscore>
-7.36422

> <r_i_glide_lipo>
-3.38237

> <r_i_glide_hbond>
-0.640928

> <r_i_glide_metal>
-0

> <r_i_glide_rewards>
-0.490536

> <r_i_glide_evdw>
-45.8063

> <r_i_glide_ecoul>
-8.46611

> <r_i_glide_erotb>
0.72183

> <r_i_glide_esite>
-0.0119911

> <r_i_glide_emodel>
-76.0726

> <r_i_glide_energy>
-54.2724

> <r_i_glide_einternal>
7.18269

> <i_i_glide_confnum>
23

> <i_i_glide_posenum>
292

> <r_i_glide_eff_state_penalty>
0

$$$$
73
                    3D
 Structure written by MMmdl.
 56 59  0  0  1  0            999 V2000
  -22.4106   13.8510  -30.2735 C   0  0  0  0  0  0
  -22.2952   13.5844  -28.9100 C   0  0  0  0  0  0
  -22.6019   15.1603  -30.7198 C   0  0  0  0  0  0
  -22.4024   14.6203  -27.9814 C   0  0  0  0  0  0
  -18.8108   22.6225  -25.8007 C   0  0  0  0  0  0
  -17.2211   21.5070  -27.2023 C   0  0  0  0  0  0
  -16.4574   23.0210  -25.6028 C   0  0  0  0  0  0
  -18.5556   21.7035  -26.8236 C   0  0  0  0  0  0
  -22.6812   16.2006  -29.7931 C   0  0  0  0  0  0
  -22.6219   15.9310  -28.4191 C   0  0  0  0  0  0
  -17.7598   23.3080  -25.1924 C   0  0  0  0  0  0
  -21.0247   14.2165  -21.0762 C   0  0  0  0  0  0
  -22.1387   14.9779  -21.0489 C   0  0  0  0  0  0
  -19.9619   14.4076  -22.0366 C   0  0  0  0  0  0
  -22.4047   16.0337  -22.0059 C   0  0  0  0  0  0
  -19.6949   21.0280  -27.4610 C   0  0  0  0  0  0
  -19.7957   20.6594  -28.7578 C   0  0  0  0  0  0
  -20.9952   20.0445  -29.2685 C   0  0  0  0  0  0
  -22.3880   16.7337  -25.2211 C   0  0  0  0  0  0
  -22.9968   17.6589  -30.0294 C   0  0  0  0  0  0
  -22.9429   17.2002  -27.6334 C   0  0  2  0  0  0
  -22.7387   18.3352  -28.6704 C   0  0  1  0  0  0
  -18.0385   24.3357  -24.1116 C   0  0  0  0  0  0
  -21.5035   17.1875  -24.0399 C   0  0  0  0  0  0
  -16.1789   22.1421  -26.5991 N   0  0  0  0  0  0
  -20.2520   15.3472  -22.9737 N   0  0  0  0  0  0
  -21.4340   16.1610  -22.9771 N   0  0  0  0  0  0
  -21.4066   18.9611  -28.5841 N   0  0  0  0  0  0
  -22.2145   17.4115  -26.3674 N   0  0  0  0  0  0
  -18.8859   13.8217  -22.0000 O   0  0  0  0  0  0
  -23.4255   16.7196  -21.9500 O   0  0  0  0  0  0
  -21.6096   20.5342  -30.2136 O   0  0  0  0  0  0
  -23.2079   15.8227  -25.1031 O   0  0  0  0  0  0
  -22.3494   13.0409  -30.9866 H   0  0  0  0  0  0
  -22.1437   12.5716  -28.5709 H   0  0  0  0  0  0
  -22.6897   15.3558  -31.7811 H   0  0  0  0  0  0
  -22.3564   14.3771  -26.9295 H   0  0  0  0  0  0
  -19.8239   22.8261  -25.4844 H   0  0  0  0  0  0
  -16.9637   20.8210  -27.9975 H   0  0  0  0  0  0
  -15.6125   23.5039  -25.1317 H   0  0  0  0  0  0
  -20.8936   13.4320  -20.3436 H   0  0  0  0  0  0
  -22.8905   14.7901  -20.2956 H   0  0  0  0  0  0
  -20.5209   20.8251  -26.7922 H   0  0  0  0  0  0
  -19.0078   20.8361  -29.4747 H   0  0  0  0  0  0
  -24.0560   17.7405  -30.2792 H   0  0  0  0  0  0
  -22.4559   18.1108  -30.8624 H   0  0  0  0  0  0
  -24.0112   17.1521  -27.4143 H   0  0  0  0  0  0
  -23.4892   19.1078  -28.4895 H   0  0  0  0  0  0
  -18.7988   25.0394  -24.4510 H   0  0  0  0  0  0
  -18.4129   23.8507  -23.2091 H   0  0  0  0  0  0
  -17.1507   24.9138  -23.8547 H   0  0  0  0  0  0
  -20.5027   17.4447  -24.3915 H   0  0  0  0  0  0
  -21.9297   18.1107  -23.6398 H   0  0  0  0  0  0
  -19.5742   15.6451  -23.6602 H   0  0  0  0  0  0
  -20.7525   18.5394  -27.9431 H   0  0  0  0  0  0
  -21.5368   18.1579  -26.3636 H   0  0  0  0  0  0
  1  2  1  0  0  0
  1  3  2  0  0  0
  1 34  1  0  0  0
  2  4  2  0  0  0
  2 35  1  0  0  0
  3  9  1  0  0  0
  3 36  1  0  0  0
  4 10  1  0  0  0
  4 37  1  0  0  0
  5  8  2  0  0  0
  5 11  1  0  0  0
  5 38  1  0  0  0
  6  8  1  0  0  0
  6 25  2  0  0  0
  6 39  1  0  0  0
  7 11  2  0  0  0
  7 25  1  0  0  0
  7 40  1  0  0  0
  8 16  1  0  0  0
  9 10  2  0  0  0
  9 20  1  0  0  0
 10 21  1  0  0  0
 11 23  1  0  0  0
 12 13  2  0  0  0
 12 14  1  0  0  0
 12 41  1  0  0  0
 13 15  1  0  0  0
 13 42  1  0  0  0
 14 26  1  0  0  0
 14 30  2  0  0  0
 15 27  1  0  0  0
 15 31  2  0  0  0
 16 17  2  0  0  0
 16 43  1  0  0  0
 17 18  1  0  0  0
 17 44  1  0  0  0
 18 28  1  0  0  0
 18 32  2  0  0  0
 19 24  1  0  0  0
 19 29  1  0  0  0
 19 33  2  0  0  0
 20 22  1  0  0  0
 20 45  1  0  0  0
 20 46  1  0  0  0
 21 22  1  0  0  0
 21 29  1  0  0  0
 21 47  1  0  0  0
 22 28  1  0  0  0
 22 48  1  0  0  0
 23 49  1  0  0  0
 23 50  1  0  0  0
 23 51  1  0  0  0
 24 27  1  0  0  0
 24 52  1  0  0  0
 24 53  1  0  0  0
 26 27  1  0  0  0
 26 54  1  0  0  0
 28 55  1  0  0  0
 29 56  1  0  0  0
M  END
> <s_i_glide_gridfile>
Cov2_glide-grid_1

> <i_i_glide_lignum>
64

> <i_i_glide_rotatable_bonds>
8

> <r_i_docking_score>
-7.35717

> <r_i_glide_ligand_efficiency>
-0.222944

> <r_i_glide_ligand_efficiency_sa>
-0.715102

> <r_i_glide_ligand_efficiency_ln>
-1.6362

> <r_i_glide_gscore>
-7.35717

> <r_i_glide_lipo>
-3.09319

> <r_i_glide_hbond>
-0.635195

> <r_i_glide_metal>
-0

> <r_i_glide_rewards>
-0.512998

> <r_i_glide_evdw>
-48.7856

> <r_i_glide_ecoul>
-9.21529

> <r_i_glide_erotb>
0.705787

> <r_i_glide_esite>
0

> <r_i_glide_emodel>
-80.2974

> <r_i_glide_energy>
-58.0009

> <r_i_glide_einternal>
6.77596

> <i_i_glide_confnum>
13

> <i_i_glide_posenum>
354

> <r_i_glide_eff_state_penalty>
0

$$$$
85
                    3D
 Structure written by MMmdl.
 59 62  0  0  1  0            999 V2000
  -20.1210   13.5486  -28.7930 C   0  0  0  0  0  0
  -20.9510   14.5508  -29.2946 C   0  0  0  0  0  0
  -19.9363   13.4211  -27.4162 C   0  0  0  0  0  0
  -21.5918   15.4281  -28.4211 C   0  0  0  0  0  0
  -20.6074   14.2716  -26.5396 C   0  0  0  0  0  0
  -21.4221   15.2911  -27.0393 C   0  0  0  0  0  0
  -21.5806   20.0320  -18.9504 C   0  0  0  0  0  0
  -23.5769   20.8270  -31.1968 C   0  0  0  0  0  0
  -20.0587   21.7153  -18.7520 C   0  0  0  0  0  0
  -21.1690   19.6452  -20.1867 C   0  0  0  0  0  0
  -22.6792   21.1385  -30.2212 C   0  0  0  0  0  0
  -20.0753   20.4236  -20.7882 C   0  0  0  0  0  0
  -21.7313   22.2118  -30.5112 C   0  0  0  0  0  0
  -22.8100   22.3948  -32.6585 C   0  0  0  0  0  0
  -21.8414   18.5626  -20.9155 C   0  0  0  0  0  0
  -22.5814   20.4702  -28.9240 C   0  0  0  0  0  0
  -21.2755   17.8049  -21.8802 C   0  0  0  0  0  0
  -23.3188   19.4146  -28.5172 C   0  0  0  0  0  0
  -21.9950   16.8253  -22.6567 C   0  0  0  0  0  0
  -23.1033   18.8081  -27.2267 C   0  0  0  0  0  0
  -20.4841   14.3782  -25.0364 C   0  0  0  0  0  0
  -21.9201   16.1646  -25.8993 C   0  0  2  0  0  0
  -21.6159   15.3349  -24.6334 C   0  0  2  0  0  0
  -22.8463   23.1206  -33.9817 C   0  0  0  0  0  0
  -23.3856   16.6683  -25.9969 C   0  0  0  0  0  0
  -21.0217   21.0447  -18.2220 N   0  0  0  0  0  0
  -23.6459   21.4516  -32.4101 N   0  0  0  0  0  0
  -19.6106   21.4208  -20.0034 N   0  0  0  0  0  0
  -21.8820   22.7704  -31.7338 N   0  0  0  0  0  0
  -21.1956   16.2143  -23.5446 N   0  0  0  0  0  0
  -23.6105   17.5682  -27.1282 N   0  0  0  0  0  0
  -19.6103   20.2645  -21.9105 O   0  0  0  0  0  0
  -20.8545   22.6209  -29.7530 O   0  0  0  0  0  0
  -23.2080   16.6217  -22.5662 O   0  0  0  0  0  0
  -22.4709   19.3518  -26.3191 O   0  0  0  0  0  0
  -19.6096   12.8858  -29.4741 H   0  0  0  0  0  0
  -21.0784   14.6652  -30.3616 H   0  0  0  0  0  0
  -19.2666   12.6640  -27.0352 H   0  0  0  0  0  0
  -22.1959   16.2204  -28.8362 H   0  0  0  0  0  0
  -22.4006   19.5127  -18.4745 H   0  0  0  0  0  0
  -24.3016   20.0400  -31.0460 H   0  0  0  0  0  0
  -19.5759   22.5347  -18.2269 H   0  0  0  0  0  0
  -22.8796   18.3696  -20.6680 H   0  0  0  0  0  0
  -21.8387   20.8483  -28.2292 H   0  0  0  0  0  0
  -20.2293   17.9290  -22.1283 H   0  0  0  0  0  0
  -24.0734   18.9648  -29.1443 H   0  0  0  0  0  0
  -19.5049   14.8059  -24.8105 H   0  0  0  0  0  0
  -20.5424   13.4270  -24.5068 H   0  0  0  0  0  0
  -21.2739   17.0454  -25.8916 H   0  0  0  0  0  0
  -22.5009   14.7417  -24.3929 H   0  0  0  0  0  0
  -23.7702   23.6902  -34.0819 H   0  0  0  0  0  0
  -22.0109   23.8123  -34.0927 H   0  0  0  0  0  0
  -22.7976   22.4057  -34.8010 H   0  0  0  0  0  0
  -23.6699   17.1912  -25.0826 H   0  0  0  0  0  0
  -24.0699   15.8227  -26.0822 H   0  0  0  0  0  0
  -18.8776   21.9889  -20.4455 H   0  0  0  0  0  0
  -21.2434   23.5177  -31.9412 H   0  0  0  0  0  0
  -20.2177   16.4664  -23.5325 H   0  0  0  0  0  0
  -24.1831   17.2159  -27.8821 H   0  0  0  0  0  0
  1  2  1  0  0  0
  1  3  2  0  0  0
  1 36  1  0  0  0
  2  4  2  0  0  0
  2 37  1  0  0  0
  3  5  1  0  0  0
  3 38  1  0  0  0
  4  6  1  0  0  0
  4 39  1  0  0  0
  5  6  2  0  0  0
  5 21  1  0  0  0
  6 22  1  0  0  0
  7 10  2  0  0  0
  7 26  1  0  0  0
  7 40  1  0  0  0
  8 11  2  0  0  0
  8 27  1  0  0  0
  8 41  1  0  0  0
  9 26  2  0  0  0
  9 28  1  0  0  0
  9 42  1  0  0  0
 10 12  1  0  0  0
 10 15  1  0  0  0
 11 13  1  0  0  0
 11 16  1  0  0  0
 12 28  1  0  0  0
 12 32  2  0  0  0
 13 29  1  0  0  0
 13 33  2  0  0  0
 14 24  1  0  0  0
 14 27  2  0  0  0
 14 29  1  0  0  0
 15 17  2  0  0  0
 15 43  1  0  0  0
 16 18  2  0  0  0
 16 44  1  0  0  0
 17 19  1  0  0  0
 17 45  1  0  0  0
 18 20  1  0  0  0
 18 46  1  0  0  0
 19 30  1  0  0  0
 19 34  2  0  0  0
 20 31  1  0  0  0
 20 35  2  0  0  0
 21 23  1  0  0  0
 21 47  1  0  0  0
 21 48  1  0  0  0
 22 23  1  0  0  0
 22 25  1  0  0  0
 22 49  1  0  0  0
 23 30  1  0  0  0
 23 50  1  0  0  0
 24 51  1  0  0  0
 24 52  1  0  0  0
 24 53  1  0  0  0
 25 31  1  0  0  0
 25 54  1  0  0  0
 25 55  1  0  0  0
 28 56  1  0  0  0
 29 57  1  0  0  0
 30 58  1  0  0  0
 31 59  1  0  0  0
M  END
> <s_i_glide_gridfile>
Cov2_glide-grid_1

> <i_i_glide_lignum>
98

> <i_i_glide_rotatable_bonds>
9

> <r_i_docking_score>
-7.3508

> <r_i_glide_ligand_efficiency>
-0.210023

> <r_i_glide_ligand_efficiency_sa>
-0.686998

> <r_i_glide_ligand_efficiency_ln>
-1.61366

> <r_i_glide_gscore>
-7.3508

> <r_i_glide_lipo>
-2.42223

> <r_i_glide_hbond>
-0.819225

> <r_i_glide_metal>
-0

> <r_i_glide_rewards>
-0.344896

> <r_i_glide_evdw>
-38.179

> <r_i_glide_ecoul>
-16.2099

> <r_i_glide_erotb>
0.724579

> <r_i_glide_esite>
-0.148589

> <r_i_glide_emodel>
-77.3302

> <r_i_glide_energy>
-54.3889

> <r_i_glide_einternal>
7.25829

> <i_i_glide_confnum>
55

> <i_i_glide_posenum>
89

> <r_i_glide_eff_state_penalty>
0

$$$$
20
                    3D
 Structure written by MMmdl.
 55 58  0  0  1  0            999 V2000
  -21.4132   13.0137  -29.2365 C   0  0  0  0  0  0
  -20.1824   13.6196  -29.4910 C   0  0  0  0  0  0
  -22.2624   13.5238  -28.2541 C   0  0  0  0  0  0
  -19.7930   14.7488  -28.7707 C   0  0  0  0  0  0
  -18.8084   21.6545  -25.9222 C   0  0  0  0  0  0
  -16.8644   23.0247  -25.6015 C   0  0  0  0  0  0
  -16.8075   21.3502  -27.2049 C   0  0  0  0  0  0
  -21.8965   14.6804  -27.5671 C   0  0  0  0  0  0
  -20.6498   15.2753  -27.8009 C   0  0  0  0  0  0
  -18.1823   22.7128  -25.2560 C   0  0  0  0  0  0
  -18.1069   20.9418  -26.9048 C   0  0  0  0  0  0
  -22.1369   18.0482  -31.9438 C   0  0  0  0  0  0
  -21.7125   19.1701  -31.3218 C   0  0  0  0  0  0
  -23.2649   17.2695  -31.4854 C   0  0  0  0  0  0
  -22.3260   19.6964  -30.1176 C   0  0  0  0  0  0
  -19.2152   18.6088  -26.7976 C   0  0  0  0  0  0
  -23.6107   18.4642  -27.2369 C   0  0  0  0  0  0
  -22.6038   15.4058  -26.4422 C   0  0  0  0  0  0
  -20.4571   16.4486  -26.8547 C   0  0  2  0  0  0
  -21.9144   16.7771  -26.4409 C   0  0  1  0  0  0
  -18.9023   23.4781  -24.1618 C   0  0  0  0  0  0
  -18.7248   19.7731  -27.6676 C   0  0  0  0  0  0
  -24.1381   19.2901  -28.4356 C   0  0  0  0  0  0
  -16.1747   22.3622  -26.5621 N   0  0  0  0  0  0
  -23.8781   17.8114  -30.4015 N   0  0  0  0  0  0
  -23.4287   18.9826  -29.7008 N   0  0  0  0  0  0
  -19.7658   17.5894  -27.4723 N   0  0  0  0  0  0
  -22.5711   17.6389  -27.4333 N   0  0  0  0  0  0
  -23.6419   16.2215  -31.9998 O   0  0  0  0  0  0
  -21.8603   20.6723  -29.5269 O   0  0  0  0  0  0
  -19.1102   18.6208  -25.5715 O   0  0  0  0  0  0
  -24.1581   18.5852  -26.1426 O   0  0  0  0  0  0
  -21.6976   12.1301  -29.7904 H   0  0  0  0  0  0
  -19.5261   13.2055  -30.2419 H   0  0  0  0  0  0
  -23.2031   13.0317  -28.0522 H   0  0  0  0  0  0
  -18.8290   15.1979  -28.9648 H   0  0  0  0  0  0
  -19.8209   21.3760  -25.6662 H   0  0  0  0  0  0
  -16.3352   23.8185  -25.0908 H   0  0  0  0  0  0
  -16.2419   20.8495  -27.9777 H   0  0  0  0  0  0
  -21.6230   17.6947  -32.8274 H   0  0  0  0  0  0
  -20.8632   19.7054  -31.7207 H   0  0  0  0  0  0
  -22.4171   14.8799  -25.5047 H   0  0  0  0  0  0
  -23.6892   15.4664  -26.5419 H   0  0  0  0  0  0
  -19.9182   16.0908  -25.9734 H   0  0  0  0  0  0
  -21.9460   17.2243  -25.4442 H   0  0  0  0  0  0
  -19.3358   22.7831  -23.4421 H   0  0  0  0  0  0
  -18.2253   24.1314  -23.6084 H   0  0  0  0  0  0
  -19.7126   24.0749  -24.5806 H   0  0  0  0  0  0
  -19.5928   20.1559  -28.2045 H   0  0  0  0  0  0
  -18.0239   19.3784  -28.4016 H   0  0  0  0  0  0
  -25.2038   19.0889  -28.5553 H   0  0  0  0  0  0
  -24.0533   20.3480  -28.1800 H   0  0  0  0  0  0
  -24.6494   17.3563  -29.9322 H   0  0  0  0  0  0
  -19.7357   17.6058  -28.4805 H   0  0  0  0  0  0
  -22.1984   17.5709  -28.3673 H   0  0  0  0  0  0
  1  2  1  0  0  0
  1  3  2  0  0  0
  1 33  1  0  0  0
  2  4  2  0  0  0
  2 34  1  0  0  0
  3  8  1  0  0  0
  3 35  1  0  0  0
  4  9  1  0  0  0
  4 36  1  0  0  0
  5 10  1  0  0  0
  5 11  2  0  0  0
  5 37  1  0  0  0
  6 10  2  0  0  0
  6 24  1  0  0  0
  6 38  1  0  0  0
  7 11  1  0  0  0
  7 24  2  0  0  0
  7 39  1  0  0  0
  8  9  2  0  0  0
  8 18  1  0  0  0
  9 19  1  0  0  0
 10 21  1  0  0  0
 11 22  1  0  0  0
 12 13  2  0  0  0
 12 14  1  0  0  0
 12 40  1  0  0  0
 13 15  1  0  0  0
 13 41  1  0  0  0
 14 25  1  0  0  0
 14 29  2  0  0  0
 15 26  1  0  0  0
 15 30  2  0  0  0
 16 22  1  0  0  0
 16 27  1  0  0  0
 16 31  2  0  0  0
 17 23  1  0  0  0
 17 28  1  0  0  0
 17 32  2  0  0  0
 18 20  1  0  0  0
 18 42  1  0  0  0
 18 43  1  0  0  0
 19 20  1  0  0  0
 19 27  1  0  0  0
 19 44  1  0  0  0
 20 28  1  0  0  0
 20 45  1  0  0  0
 21 46  1  0  0  0
 21 47  1  0  0  0
 21 48  1  0  0  0
 22 49  1  0  0  0
 22 50  1  0  0  0
 23 26  1  0  0  0
 23 51  1  0  0  0
 23 52  1  0  0  0
 25 26  1  0  0  0
 25 53  1  0  0  0
 27 54  1  0  0  0
 28 55  1  0  0  0
M  END
> <s_i_glide_gridfile>
Cov2_glide-grid_1

> <i_i_glide_lignum>
4

> <i_i_glide_rotatable_bonds>
8

> <r_i_docking_score>
-7.25122

> <r_i_glide_ligand_efficiency>
-0.226601

> <r_i_glide_ligand_efficiency_sa>
-0.719413

> <r_i_glide_ligand_efficiency_ln>
-1.62375

> <r_i_glide_gscore>
-7.25122

> <r_i_glide_lipo>
-3.31693

> <r_i_glide_hbond>
-0.49943

> <r_i_glide_metal>
-0

> <r_i_glide_rewards>
-0.588153

> <r_i_glide_evdw>
-50.1518

> <r_i_glide_ecoul>
-7.20533

> <r_i_glide_erotb>
0.741675

> <r_i_glide_esite>
0

> <r_i_glide_emodel>
-81.5587

> <r_i_glide_energy>
-57.3571

> <r_i_glide_einternal>
2.75359

> <i_i_glide_confnum>
116

> <i_i_glide_posenum>
331

> <r_i_glide_eff_state_penalty>
0

$$$$
4
                    3D
 Structure written by MMmdl.
 54 56  0  0  1  0            999 V2000
  -21.9018   13.3807  -29.5286 C   0  0  0  0  0  0
  -22.8510   13.9023  -30.4012 C   0  0  0  0  0  0
  -21.0384   14.2280  -28.8404 C   0  0  0  0  0  0
  -22.9330   15.2794  -30.5927 C   0  0  0  0  0  0
  -21.1271   15.6057  -29.0258 C   0  0  0  0  0  0
  -22.0701   16.1487  -29.9125 C   0  0  0  0  0  0
  -25.1840   22.4889  -32.3340 C   0  0  0  0  0  0
  -25.3566   22.8778  -30.9492 C   0  0  0  0  0  0
  -19.6353   21.9163  -25.7195 C   0  0  0  0  0  0
  -23.9306   22.1997  -32.7246 C   0  0  0  0  0  0
  -18.2386   23.4308  -24.7547 C   0  0  0  0  0  0
  -18.7122   21.4523  -26.6057 C   0  0  0  0  0  0
  -24.2866   22.9279  -30.1196 C   0  0  0  0  0  0
  -17.3772   22.0460  -26.5284 C   0  0  0  0  0  0
  -22.9168   22.5899  -30.5717 C   0  0  0  0  0  0
  -18.9725   20.4302  -27.6246 C   0  0  0  0  0  0
  -20.1756   19.8617  -27.8674 C   0  0  0  0  0  0
  -20.3779   18.8856  -28.9126 C   0  0  0  0  0  0
  -21.1381   20.3875  -32.3127 C   0  0  0  0  0  0
  -21.4793   21.8868  -32.4460 C   0  0  0  0  0  0
  -21.8482   18.0979  -31.5767 C   0  0  0  0  0  0
  -22.2363   17.6686  -30.1286 C   0  0  2  0  0  0
  -19.4076   22.8994  -24.8014 N   0  0  0  0  0  0
  -17.2520   23.0202  -25.6009 N   0  0  0  0  0  0
  -22.8149   22.2393  -31.9136 N   0  0  0  0  0  0
  -24.4129   23.3058  -28.8015 N   0  0  0  0  0  0
  -21.6684   18.5471  -29.0834 N   0  0  0  0  0  0
  -22.0671   19.5271  -31.8470 N   0  0  0  0  0  0
  -16.4102   21.7222  -27.2070 O   0  0  0  0  0  0
  -21.9423   22.6205  -29.8041 O   0  0  0  0  0  0
  -19.4679   18.4295  -29.6018 O   0  0  0  0  0  0
  -20.0107   20.0332  -32.6472 O   0  0  0  0  0  0
  -21.8332   12.3121  -29.3850 H   0  0  0  0  0  0
  -23.5245   13.2416  -30.9259 H   0  0  0  0  0  0
  -20.3035   13.8195  -28.1624 H   0  0  0  0  0  0
  -23.6796   15.6693  -31.2691 H   0  0  0  0  0  0
  -20.4481   16.2342  -28.4731 H   0  0  0  0  0  0
  -26.0211   22.4350  -33.0161 H   0  0  0  0  0  0
  -26.3427   23.1343  -30.5877 H   0  0  0  0  0  0
  -20.6400   21.5219  -25.7176 H   0  0  0  0  0  0
  -23.6950   21.8951  -33.7353 H   0  0  0  0  0  0
  -17.9946   24.2112  -24.0379 H   0  0  0  0  0  0
  -18.1358   20.1128  -28.2396 H   0  0  0  0  0  0
  -21.0515   20.1298  -27.2965 H   0  0  0  0  0  0
  -20.7071   22.4771  -31.9521 H   0  0  0  0  0  0
  -21.4150   22.1719  -33.4967 H   0  0  0  0  0  0
  -20.8109   17.8210  -31.7562 H   0  0  0  0  0  0
  -22.4236   17.5301  -32.3092 H   0  0  0  0  0  0
  -23.3098   17.8443  -30.0342 H   0  0  0  0  0  0
  -16.3354   23.4262  -25.5174 H   0  0  0  0  0  0
  -25.3079   23.5647  -28.4107 H   0  0  0  0  0  0
  -23.6059   23.3764  -28.1978 H   0  0  0  0  0  0
  -22.3249   18.8863  -28.3977 H   0  0  0  0  0  0
  -22.9986   19.8760  -31.6792 H   0  0  0  0  0  0
  1  2  1  0  0  0
  1  3  2  0  0  0
  1 33  1  0  0  0
  2  4  2  0  0  0
  2 34  1  0  0  0
  3  5  1  0  0  0
  3 35  1  0  0  0
  4  6  1  0  0  0
  4 36  1  0  0  0
  5  6  2  0  0  0
  5 37  1  0  0  0
  6 22  1  0  0  0
  7  8  1  0  0  0
  7 10  2  0  0  0
  7 38  1  0  0  0
  8 13  2  0  0  0
  8 39  1  0  0  0
  9 12  2  0  0  0
  9 23  1  0  0  0
  9 40  1  0  0  0
 10 25  1  0  0  0
 10 41  1  0  0  0
 11 23  2  0  0  0
 11 24  1  0  0  0
 11 42  1  0  0  0
 12 14  1  0  0  0
 12 16  1  0  0  0
 13 15  1  0  0  0
 13 26  1  0  0  0
 14 24  1  0  0  0
 14 29  2  0  0  0
 15 25  1  0  0  0
 15 30  2  0  0  0
 16 17  2  0  0  0
 16 43  1  0  0  0
 17 18  1  0  0  0
 17 44  1  0  0  0
 18 27  1  0  0  0
 18 31  2  0  0  0
 19 20  1  0  0  0
 19 28  1  0  0  0
 19 32  2  0  0  0
 20 25  1  0  0  0
 20 45  1  0  0  0
 20 46  1  0  0  0
 21 22  1  0  0  0
 21 28  1  0  0  0
 21 47  1  0  0  0
 21 48  1  0  0  0
 22 27  1  0  0  0
 22 49  1  0  0  0
 24 50  1  0  0  0
 26 51  1  0  0  0
 26 52  1  0  0  0
 27 53  1  0  0  0
 28 54  1  0  0  0
M  END
> <s_i_glide_gridfile>
Cov2_glide-grid_1

> <i_i_glide_lignum>
17

> <i_i_glide_rotatable_bonds>
10

> <r_i_docking_score>
-7.1496

> <r_i_glide_ligand_efficiency>
-0.223425

> <r_i_glide_ligand_efficiency_sa>
-0.70933

> <r_i_glide_ligand_efficiency_ln>
-1.60099

> <r_i_glide_gscore>
-7.1496

> <r_i_glide_lipo>
-2.48238

> <r_i_glide_hbond>
-0.737375

> <r_i_glide_metal>
-0

> <r_i_glide_rewards>
-0.834207

> <r_i_glide_evdw>
-45.4546

> <r_i_glide_ecoul>
-10.749

> <r_i_glide_erotb>
0.844137

> <r_i_glide_esite>
-0.0546879

> <r_i_glide_emodel>
-80.9236

> <r_i_glide_energy>
-56.2036

> <r_i_glide_einternal>
2.92445

> <i_i_glide_confnum>
192

> <i_i_glide_posenum>
259

> <r_i_glide_eff_state_penalty>
0

$$$$
11
                    3D
 Structure written by MMmdl.
 59 62  0  0  1  0            999 V2000
  -22.8638   13.8027  -30.4255 C   0  0  0  0  0  0
  -22.8103   13.0613  -29.2482 C   0  0  0  0  0  0
  -22.2258   15.0414  -30.5103 C   0  0  0  0  0  0
  -22.1479   13.5757  -28.1368 C   0  0  0  0  0  0
  -21.5004   15.5228  -29.4221 C   0  0  0  0  0  0
  -21.4839   14.8012  -28.2261 C   0  0  0  0  0  0
  -23.0188   14.7987  -19.6251 C   0  0  0  0  0  0
  -22.2524   13.8201  -20.1605 C   0  0  0  0  0  0
  -22.8130   16.1713  -20.0494 C   0  0  0  0  0  0
  -19.9815   22.5648  -24.6822 C   0  0  0  0  0  0
  -21.8584   16.3819  -20.9753 C   0  0  0  0  0  0
  -19.1196   21.9329  -25.5297 C   0  0  0  0  0  0
  -21.2083   14.0722  -21.1548 C   0  0  0  0  0  0
  -17.7955   22.5363  -25.6864 C   0  0  0  0  0  0
  -18.5326   24.2200  -24.1221 C   0  0  0  0  0  0
  -19.4386   20.6969  -26.2519 C   0  0  0  0  0  0
  -20.5052   19.9146  -25.9735 C   0  0  0  0  0  0
  -20.8905   18.7251  -26.6906 C   0  0  0  0  0  0
  -20.5612   15.2798  -23.9741 C   0  0  0  0  0  0
  -20.7961   16.8473  -29.2545 C   0  0  0  0  0  0
  -20.7566   15.5659  -27.1414 C   0  0  2  0  0  0
  -20.0397   16.6947  -27.9222 C   0  0  2  0  0  0
  -18.1511   25.4421  -23.3258 C   0  0  0  0  0  0
  -20.0666   15.7064  -22.5810 C   0  0  0  0  0  0
  -19.8349   14.6737  -26.2660 C   0  0  0  0  0  0
  -19.7027   23.7129  -24.0018 N   0  0  0  0  0  0
  -17.6061   23.6527  -24.9473 N   0  0  0  0  0  0
  -21.0706   15.3972  -21.5401 N   0  0  0  0  0  0
  -19.8934   17.9511  -27.1677 N   0  0  0  0  0  0
  -19.6120   15.1763  -24.9120 N   0  0  0  0  0  0
  -20.5239   13.1434  -21.6012 O   0  0  0  0  0  0
  -16.8948   22.1009  -26.4019 O   0  0  0  0  0  0
  -22.0782   18.4495  -26.8231 O   0  0  0  0  0  0
  -21.7500   15.0221  -24.1855 O   0  0  0  0  0  0
  -23.4080   13.4209  -31.2716 H   0  0  0  0  0  0
  -23.3005   12.1020  -29.1833 H   0  0  0  0  0  0
  -22.2823   15.6092  -31.4282 H   0  0  0  0  0  0
  -22.1657   13.0208  -27.2116 H   0  0  0  0  0  0
  -23.7783   14.5615  -18.8932 H   0  0  0  0  0  0
  -22.4098   12.7971  -19.8560 H   0  0  0  0  0  0
  -23.3943   16.9834  -19.6350 H   0  0  0  0  0  0
  -20.9762   22.1805  -24.5201 H   0  0  0  0  0  0
  -21.6213   17.3650  -21.3577 H   0  0  0  0  0  0
  -18.7830   20.4073  -27.0658 H   0  0  0  0  0  0
  -21.1926   20.1570  -25.1774 H   0  0  0  0  0  0
  -21.5549   17.6262  -29.1999 H   0  0  0  0  0  0
  -20.1253   17.1134  -30.0700 H   0  0  0  0  0  0
  -21.5522   15.9777  -26.5220 H   0  0  0  0  0  0
  -19.0456   16.3284  -28.1877 H   0  0  0  0  0  0
  -18.1258   25.1991  -22.2609 H   0  0  0  0  0  0
  -17.1674   25.8185  -23.6012 H   0  0  0  0  0  0
  -18.8777   26.2438  -23.4768 H   0  0  0  0  0  0
  -19.1265   15.1951  -22.3597 H   0  0  0  0  0  0
  -19.8342   16.7699  -22.5816 H   0  0  0  0  0  0
  -20.2612   13.6750  -26.1509 H   0  0  0  0  0  0
  -18.8765   14.5085  -26.7597 H   0  0  0  0  0  0
  -16.6760   24.0352  -24.9717 H   0  0  0  0  0  0
  -18.9486   18.2665  -27.0225 H   0  0  0  0  0  0
  -18.6536   15.3527  -24.6484 H   0  0  0  0  0  0
  1  2  1  0  0  0
  1  3  2  0  0  0
  1 35  1  0  0  0
  2  4  2  0  0  0
  2 36  1  0  0  0
  3  5  1  0  0  0
  3 37  1  0  0  0
  4  6  1  0  0  0
  4 38  1  0  0  0
  5  6  2  0  0  0
  5 20  1  0  0  0
  6 21  1  0  0  0
  7  8  2  0  0  0
  7  9  1  0  0  0
  7 39  1  0  0  0
  8 13  1  0  0  0
  8 40  1  0  0  0
  9 11  2  0  0  0
  9 41  1  0  0  0
 10 12  2  0  0  0
 10 26  1  0  0  0
 10 42  1  0  0  0
 11 28  1  0  0  0
 11 43  1  0  0  0
 12 14  1  0  0  0
 12 16  1  0  0  0
 13 28  1  0  0  0
 13 31  2  0  0  0
 14 27  1  0  0  0
 14 32  2  0  0  0
 15 23  1  0  0  0
 15 26  2  0  0  0
 15 27  1  0  0  0
 16 17  2  0  0  0
 16 44  1  0  0  0
 17 18  1  0  0  0
 17 45  1  0  0  0
 18 29  1  0  0  0
 18 33  2  0  0  0
 19 24  1  0  0  0
 19 30  1  0  0  0
 19 34  2  0  0  0
 20 22  1  0  0  0
 20 46  1  0  0  0
 20 47  1  0  0  0
 21 22  1  0  0  0
 21 25  1  0  0  0
 21 48  1  0  0  0
 22 29  1  0  0  0
 22 49  1  0  0  0
 23 50  1  0  0  0
 23 51  1  0  0  0
 23 52  1  0  0  0
 24 28  1  0  0  0
 24 53  1  0  0  0
 24 54  1  0  0  0
 25 30  1  0  0  0
 25 55  1  0  0  0
 25 56  1  0  0  0
 27 57  1  0  0  0
 29 58  1  0  0  0
 30 59  1  0  0  0
M  END
> <s_i_glide_gridfile>
Cov2_glide-grid_1

> <i_i_glide_lignum>
40

> <i_i_glide_rotatable_bonds>
9

> <r_i_docking_score>
-6.91815

> <r_i_glide_ligand_efficiency>
-0.203475

> <r_i_glide_ligand_efficiency_sa>
-0.65918

> <r_i_glide_ligand_efficiency_ln>
-1.52841

> <r_i_glide_gscore>
-6.91815

> <r_i_glide_lipo>
-3.14107

> <r_i_glide_hbond>
-0.0493751

> <r_i_glide_metal>
-0

> <r_i_glide_rewards>
-0.753087

> <r_i_glide_evdw>
-50.2478

> <r_i_glide_ecoul>
-7.08616

> <r_i_glide_erotb>
0.762387

> <r_i_glide_esite>
-0.161691

> <r_i_glide_emodel>
-80.0819

> <r_i_glide_energy>
-57.334

> <r_i_glide_einternal>
5.78589

> <i_i_glide_confnum>
138

> <i_i_glide_posenum>
282

> <r_i_glide_eff_state_penalty>
0

$$$$
7
                    3D
 Structure written by MMmdl.
 58 61  0  0  1  0            999 V2000
  -22.8001   14.1722  -19.2323 C   0  0  0  0  0  0
  -23.6110   15.2412  -19.5975 C   0  0  0  0  0  0
  -21.6914   13.8311  -20.0037 C   0  0  0  0  0  0
  -23.3313   15.9814  -20.7432 C   0  0  0  0  0  0
  -20.2830   14.2147  -22.0047 C   0  0  0  0  0  0
  -20.0438   14.9151  -23.1846 C   0  0  0  0  0  0
  -21.9390   16.3471  -22.7533 C   0  0  0  0  0  0
  -21.3880   14.5501  -21.1854 C   0  0  0  0  0  0
  -22.2247   15.6422  -21.5617 C   0  0  0  0  0  0
  -20.8761   15.9659  -23.5795 C   0  0  0  0  0  0
  -20.5388   19.1144  -31.4048 C   0  0  0  0  0  0
  -20.8104   20.8179  -32.8902 C   0  0  0  0  0  0
  -20.3592   19.9239  -30.3282 C   0  0  0  0  0  0
  -22.9247   15.5624  -28.6971 C   0  0  0  0  0  0
  -23.0529   16.6726  -29.4447 C   0  0  0  0  0  0
  -20.4662   21.3675  -30.5673 C   0  0  0  0  0  0
  -22.4042   14.5032  -29.5450 C   0  0  0  0  0  0
  -20.1244   19.3604  -28.9944 C   0  0  0  0  0  0
  -19.5916   20.0050  -27.9305 C   0  0  0  0  0  0
  -19.4641   19.4041  -26.6300 C   0  0  0  0  0  0
  -22.7161   16.1467  -26.2010 C   0  0  0  0  0  0
  -23.6095   18.0483  -29.1442 C   0  0  0  0  0  0
  -23.3388   15.2417  -27.2620 C   0  0  0  0  0  0
  -20.7677   18.2250  -24.8537 C   0  0  0  0  0  0
  -20.6233   16.6743  -24.9181 C   0  0  2  0  0  0
  -20.7445   19.5522  -32.6830 N   0  0  0  0  0  0
  -20.6845   21.7009  -31.8594 N   0  0  0  0  0  0
  -22.6036   16.3913  -30.7232 N   0  0  0  0  0  0
  -20.6016   18.8790  -26.1531 N   0  0  0  0  0  0
  -21.3927   16.0279  -25.9944 N   0  0  0  0  0  0
  -20.4107   22.2604  -29.7286 O   0  0  0  0  0  0
  -22.1696   13.3330  -29.2424 O   0  0  0  0  0  0
  -18.4106   19.4214  -26.0024 O   0  0  0  0  0  0
  -23.4402   16.9063  -25.5569 O   0  0  0  0  0  0
  -22.2139   15.0283  -30.7463 O   0  0  0  0  0  0
  -23.0218   13.6116  -18.3355 H   0  0  0  0  0  0
  -24.4617   15.5020  -18.9849 H   0  0  0  0  0  0
  -21.0495   13.0211  -19.6982 H   0  0  0  0  0  0
  -23.9660   16.8117  -21.0181 H   0  0  0  0  0  0
  -19.6358   13.3996  -21.7167 H   0  0  0  0  0  0
  -19.2090   14.6226  -23.8065 H   0  0  0  0  0  0
  -22.5958   17.1552  -23.0359 H   0  0  0  0  0  0
  -20.4924   18.0429  -31.2771 H   0  0  0  0  0  0
  -20.9730   21.2228  -33.8860 H   0  0  0  0  0  0
  -20.4076   18.3223  -28.8528 H   0  0  0  0  0  0
  -19.2300   21.0200  -27.9802 H   0  0  0  0  0  0
  -24.4688   18.2568  -29.7826 H   0  0  0  0  0  0
  -23.9385   18.1170  -28.1067 H   0  0  0  0  0  0
  -22.8614   18.8194  -29.3166 H   0  0  0  0  0  0
  -23.1644   14.1973  -26.9989 H   0  0  0  0  0  0
  -24.4103   15.4011  -27.2027 H   0  0  0  0  0  0
  -20.0631   18.6267  -24.1209 H   0  0  0  0  0  0
  -21.7521   18.5186  -24.4927 H   0  0  0  0  0  0
  -19.5785   16.5052  -25.1735 H   0  0  0  0  0  0
  -20.7986   22.6854  -32.0283 H   0  0  0  0  0  0
  -23.1345   16.5369  -31.5715 H   0  0  0  0  0  0
  -21.4296   18.9428  -26.7246 H   0  0  0  0  0  0
  -20.8976   15.3346  -26.5366 H   0  0  0  0  0  0
  1  2  1  0  0  0
  1  3  2  0  0  0
  1 36  1  0  0  0
  2  4  2  0  0  0
  2 37  1  0  0  0
  3  8  1  0  0  0
  3 38  1  0  0  0
  4  9  1  0  0  0
  4 39  1  0  0  0
  5  6  2  0  0  0
  5  8  1  0  0  0
  5 40  1  0  0  0
  6 10  1  0  0  0
  6 41  1  0  0  0
  7  9  1  0  0  0
  7 10  2  0  0  0
  7 42  1  0  0  0
  8  9  2  0  0  0
 10 25  1  0  0  0
 11 13  2  0  0  0
 11 26  1  0  0  0
 11 43  1  0  0  0
 12 26  2  0  0  0
 12 27  1  0  0  0
 12 44  1  0  0  0
 13 16  1  0  0  0
 13 18  1  0  0  0
 14 15  2  0  0  0
 14 17  1  0  0  0
 14 23  1  0  0  0
 15 22  1  0  0  0
 15 28  1  0  0  0
 16 27  1  0  0  0
 16 31  2  0  0  0
 17 32  2  0  0  0
 17 35  1  0  0  0
 18 19  2  0  0  0
 18 45  1  0  0  0
 19 20  1  0  0  0
 19 46  1  0  0  0
 20 29  1  0  0  0
 20 33  2  0  0  0
 21 23  1  0  0  0
 21 30  1  0  0  0
 21 34  2  0  0  0
 22 47  1  0  0  0
 22 48  1  0  0  0
 22 49  1  0  0  0
 23 50  1  0  0  0
 23 51  1  0  0  0
 24 25  1  0  0  0
 24 29  1  0  0  0
 24 52  1  0  0  0
 24 53  1  0  0  0
 25 30  1  0  0  0
 25 54  1  0  0  0
 27 55  1  0  0  0
 28 35  1  0  0  0
 28 56  1  0  0  0
 29 57  1  0  0  0
 30 58  1  0  0  0
M  END
> <s_i_glide_gridfile>
Cov2_glide-grid_1

> <i_i_glide_lignum>
42

> <i_i_glide_rotatable_bonds>
10

> <r_i_docking_score>
-6.86725

> <r_i_glide_ligand_efficiency>
-0.196207

> <r_i_glide_ligand_efficiency_sa>
-0.641807

> <r_i_glide_ligand_efficiency_ln>
-1.50751

> <r_i_glide_gscore>
-6.86725

> <r_i_glide_lipo>
-2.19771

> <r_i_glide_hbond>
-0.609877

> <r_i_glide_metal>
-0

> <r_i_glide_rewards>
-0.882376

> <r_i_glide_evdw>
-46.8683

> <r_i_glide_ecoul>
-10.3714

> <r_i_glide_erotb>
0.72183

> <r_i_glide_esite>
0

> <r_i_glide_emodel>
-79.7565

> <r_i_glide_energy>
-57.2397

> <r_i_glide_einternal>
7.9212

> <i_i_glide_confnum>
208

> <i_i_glide_posenum>
98

> <r_i_glide_eff_state_penalty>
0

$$$$
