0
 OpenBabel08042116023D

 38 41  0  0  1  0  0  0  0  0999 V2000
  -19.9580   17.3600  -25.9380 C   0  0  1  0  0  0  0  0  0  0  0  0
  -17.5560   23.3930  -25.3820 C   0  0  0  0  0  0  0  0  0  0  0  0
  -18.5970   22.7590  -24.7030 C   0  0  0  0  0  0  0  0  0  0  0  0
  -18.9410   21.4300  -24.9980 C   0  0  0  0  0  0  0  0  0  0  0  0
  -18.2190   20.7340  -25.9950 C   0  0  0  0  0  0  0  0  0  0  0  0
  -18.5640   19.4040  -26.2900 C   0  0  0  0  0  0  0  0  0  0  0  0
  -19.6050   18.7710  -25.6110 C   0  0  0  0  0  0  0  0  0  0  0  0
  -20.3160   19.4560  -24.6310 C   0  0  0  0  0  0  0  0  0  0  0  0
  -17.1730   21.3860  -26.6680 C   0  0  0  0  0  0  0  0  0  0  0  0
  -19.9880   20.7780  -24.3250 C   0  0  0  0  0  0  0  0  0  0  0  0
  -16.8450   22.7070  -26.3620 C   0  0  0  0  0  0  0  0  0  0  0  0
  -20.0090   16.5140  -24.7260 N   0  0  0  0  0  0  0  0  0  0  0  0
  -20.2560   16.9310  -23.8490 H   0  0  0  0  0  0  0  0  0  0  0  0
  -19.7280   15.1810  -24.7720 C   0  0  0  0  0  0  0  0  0  0  0  0
  -19.4120   14.5110  -25.7490 O   0  0  0  0  0  0  0  0  0  0  0  0
  -19.8450   14.5590  -23.4400 C   0  0  0  0  0  0  0  0  0  0  0  0
  -21.0610   14.1560  -23.0450 C   0  0  0  0  0  0  0  0  0  0  0  0
  -21.2170   13.5200  -21.7000 C   0  0  0  0  0  0  0  0  0  0  0  0
  -22.3220   13.1440  -21.3170 O   0  0  0  0  0  0  0  0  0  0  0  0
  -20.0530   13.3980  -20.9570 N   0  0  0  0  0  0  0  0  0  0  0  0
  -20.1020   12.9720  -20.0360 H   0  0  0  0  0  0  0  0  0  0  0  0
  -18.8240   13.8220  -21.3970 C   0  0  0  0  0  0  0  0  0  0  0  0
  -18.6840   14.3920  -22.6000 C   0  0  0  0  0  0  0  0  0  0  0  0
  -21.2870   17.2010  -26.7130 C   0  0  0  0  0  0  0  0  0  0  0  0
  -21.6320   15.8160  -26.9000 N   0  0  0  0  0  0  0  0  0  0  0  0
  -20.8790   15.1490  -27.0590 H   0  0  0  0  0  0  0  0  0  0  0  0
  -22.9390   15.3400  -26.8740 C   0  0  0  0  0  0  0  0  0  0  0  0
  -23.9370   16.0320  -26.6930 O   0  0  0  0  0  0  0  0  0  0  0  0
  -22.9910   13.8510  -27.1030 C   0  0  0  0  0  0  0  0  0  0  0  0
  -21.9950   13.4730  -28.1160 N   0  0  0  0  0  0  0  0  0  0  0  0
  -20.6690   13.4750  -27.7520 N   0  0  0  0  0  0  0  0  0  0  0  0
  -20.4470   13.7400  -26.7970 H   0  0  0  0  0  0  0  0  0  0  0  0
  -19.6720   13.1340  -28.6300 C   0  0  0  0  0  0  0  0  0  0  0  0
  -18.4780   13.1230  -28.3380 O   0  0  0  0  0  0  0  0  0  0  0  0
  -20.1000   12.7650  -29.9930 C   0  0  0  0  0  0  0  0  0  0  0  0
  -21.3880   12.7690  -30.3320 C   0  0  0  0  0  0  0  0  0  0  0  0
  -22.4410   13.1400  -29.3630 C   0  0  0  0  0  0  0  0  0  0  0  0
  -23.6160   13.1270  -29.7280 O   0  0  0  0  0  0  0  0  0  0  0  0
  1 24  1  1  0  0  0
  1  7  1  0  0  0  0
  1 12  1  0  0  0  0
  2  3  2  0  0  0  0
  4  3  1  0  0  0  0
  4 10  2  0  0  0  0
  5  4  1  0  0  0  0
  6  5  2  0  0  0  0
  6  7  1  0  0  0  0
  7  8  2  0  0  0  0
  8 10  1  0  0  0  0
  9 11  2  0  0  0  0
  9  5  1  0  0  0  0
 11  2  1  0  0  0  0
 12 13  1  0  0  0  0
 14 12  1  0  0  0  0
 14 16  1  0  0  0  0
 15 14  2  0  0  0  0
 16 17  2  0  0  0  0
 16 23  1  0  0  0  0
 17 18  1  0  0  0  0
 18 19  2  0  0  0  0
 18 20  1  0  0  0  0
 20 21  1  0  0  0  0
 22 20  1  0  0  0  0
 23 22  2  0  0  0  0
 25 27  1  0  0  0  0
 25 24  1  0  0  0  0
 26 25  1  0  0  0  0
 27 28  2  0  0  0  0
 29 27  1  0  0  0  0
 30 31  1  0  0  0  0
 30 29  1  0  0  0  0
 31 32  1  0  0  0  0
 33 34  2  0  0  0  0
 33 31  1  0  0  0  0
 35 33  1  0  0  0  0
 36 35  2  0  0  0  0
 36 37  1  0  0  0  0
 37 30  1  0  0  0  0
 38 37  2  0  0  0  0
M  END
>  <ADSCOR>
   -8.58

$$$$
1
 OpenBabel08042116023D

 40 43  0  0  1  0  0  0  0  0999 V2000
  -19.7050   16.5770  -25.1880 C   0  0  1  0  0  0  0  0  0  0  0  0
  -23.0550   14.1170  -30.2090 C   0  0  0  0  0  0  0  0  0  0  0  0
  -22.9140   13.6640  -28.8970 C   0  0  0  0  0  0  0  0  0  0  0  0
  -22.1260   14.3720  -27.9740 C   0  0  0  0  0  0  0  0  0  0  0  0
  -21.4730   15.5570  -28.3890 C   0  0  0  0  0  0  0  0  0  0  0  0
  -20.6850   16.2660  -27.4670 C   0  0  0  0  0  0  0  0  0  0  0  0
  -20.5440   15.8120  -26.1550 C   0  0  0  0  0  0  0  0  0  0  0  0
  -21.1860   14.6470  -25.7470 C   0  0  0  0  0  0  0  0  0  0  0  0
  -21.6260   16.0000  -29.7130 C   0  0  0  0  0  0  0  0  0  0  0  0
  -21.9730   13.9310  -26.6500 C   0  0  0  0  0  0  0  0  0  0  0  0
  -22.4120   15.2830  -30.6160 C   0  0  0  0  0  0  0  0  0  0  0  0
  -20.4480   17.7060  -24.5910 N   0  0  0  0  0  0  0  0  0  0  0  0
  -20.0190   18.6110  -24.5670 H   0  0  0  0  0  0  0  0  0  0  0  0
  -21.7020   17.5520  -24.0690 C   0  0  0  0  0  0  0  0  0  0  0  0
  -22.3490   16.5060  -24.0280 O   0  0  0  0  0  0  0  0  0  0  0  0
  -22.2460   18.8540  -23.5140 C   0  0  0  0  0  0  0  0  0  0  0  0
  -21.4250   19.2680  -22.3440 C   0  0  0  0  0  0  0  0  0  0  0  0
  -20.2480   20.1530  -22.5820 C   0  0  0  0  0  0  0  0  0  0  0  0
  -19.9450   20.5420  -23.7060 O   0  0  0  0  0  0  0  0  0  0  0  0
  -19.5540   20.4780  -21.4330 N   0  0  0  0  0  0  0  0  0  0  0  0
  -18.7380   21.0790  -21.5100 H   0  0  0  0  0  0  0  0  0  0  0  0
  -19.9310   20.0180  -20.1930 C   0  0  0  0  0  0  0  0  0  0  0  0
  -20.9470   19.2510  -19.9690 N   0  0  0  0  0  0  0  0  0  0  0  0
  -21.6740   18.8960  -21.0780 C   0  0  0  0  0  0  0  0  0  0  0  0
  -19.1060   15.7150  -24.0500 C   0  0  0  0  0  0  0  0  0  0  0  0
  -20.0790   15.4340  -23.0270 N   0  0  0  0  0  0  0  0  0  0  0  0
  -20.5980   16.2160  -22.6340 H   0  0  0  0  0  0  0  0  0  0  0  0
  -20.3530   14.1420  -22.6000 C   0  0  0  0  0  0  0  0  0  0  0  0
  -19.8160   13.1260  -23.0280 O   0  0  0  0  0  0  0  0  0  0  0  0
  -21.3990   14.1130  -21.5420 C   0  0  0  0  0  0  0  0  0  0  0  0
  -21.1510   13.5170  -20.3680 C   0  0  0  0  0  0  0  0  0  0  0  0
  -22.1130   13.4530  -19.3040 C   0  0  0  0  0  0  0  0  0  0  0  0
  -21.7400   12.8460  -18.0020 C   0  0  0  0  0  0  0  0  0  0  0  0
  -20.6250   12.3860  -17.7820 O   0  0  0  0  0  0  0  0  0  0  0  0
  -22.7660   12.8530  -17.0750 N   0  0  0  0  0  0  0  0  0  0  0  0
  -22.5810   12.4520  -16.1590 H   0  0  0  0  0  0  0  0  0  0  0  0
  -24.0110   13.3790  -17.3510 C   0  0  0  0  0  0  0  0  0  0  0  0
  -24.3410   13.9090  -18.4880 N   0  0  0  0  0  0  0  0  0  0  0  0
  -25.0100   13.3060  -16.2320 C   0  0  0  0  0  0  0  0  0  0  0  0
  -23.3590   13.9290  -19.4480 C   0  0  0  0  0  0  0  0  0  0  0  0
  1 12  1  0  0  0  0
  1 25  1  1  0  0  0
  2  3  1  0  0  0  0
  3  4  2  0  0  0  0
  4 10  1  0  0  0  0
  5  4  1  0  0  0  0
  5  6  1  0  0  0  0
  6  7  2  0  0  0  0
  7  8  1  0  0  0  0
  7  1  1  0  0  0  0
  9  5  2  0  0  0  0
 10  8  2  0  0  0  0
 11  2  2  0  0  0  0
 11  9  1  0  0  0  0
 12 13  1  0  0  0  0
 12 14  1  0  0  0  0
 14 15  2  0  0  0  0
 14 16  1  0  0  0  0
 16 17  1  0  0  0  0
 17 24  2  0  0  0  0
 18 17  1  0  0  0  0
 18 20  1  0  0  0  0
 19 18  2  0  0  0  0
 20 22  1  0  0  0  0
 21 20  1  0  0  0  0
 22 23  2  0  0  0  0
 24 23  1  0  0  0  0
 25 26  1  0  0  0  0
 26 27  1  0  0  0  0
 26 28  1  0  0  0  0
 28 30  1  0  0  0  0
 29 28  2  0  0  0  0
 30 31  2  0  0  0  0
 31 32  1  0  0  0  0
 32 33  1  0  0  0  0
 33 34  2  0  0  0  0
 33 35  1  0  0  0  0
 35 36  1  0  0  0  0
 37 35  1  0  0  0  0
 37 39  1  0  0  0  0
 38 37  2  0  0  0  0
 40 32  2  0  0  0  0
 40 38  1  0  0  0  0
M  END
>  <ADSCOR>
   -7.88

$$$$
10
 OpenBabel08042116023D

 38 41  0  0  1  0  0  0  0  0999 V2000
  -19.7140   16.0670  -25.4070 C   0  0  1  0  0  0  0  0  0  0  0  0
  -21.9220   13.6000  -19.7920 C   0  0  0  0  0  0  0  0  0  0  0  0
  -20.6560   13.5460  -20.3770 C   0  0  0  0  0  0  0  0  0  0  0  0
  -20.4120   14.1620  -21.6150 C   0  0  0  0  0  0  0  0  0  0  0  0
  -21.4660   14.8430  -22.2690 C   0  0  0  0  0  0  0  0  0  0  0  0
  -21.2220   15.4600  -23.5070 C   0  0  0  0  0  0  0  0  0  0  0  0
  -19.9560   15.4060  -24.0910 C   0  0  0  0  0  0  0  0  0  0  0  0
  -18.9200   14.7360  -23.4490 C   0  0  0  0  0  0  0  0  0  0  0  0
  -22.7340   14.8880  -21.6660 C   0  0  0  0  0  0  0  0  0  0  0  0
  -19.1440   14.1180  -22.2190 C   0  0  0  0  0  0  0  0  0  0  0  0
  -22.9580   14.2700  -20.4350 C   0  0  0  0  0  0  0  0  0  0  0  0
  -20.6190   15.5500  -26.4550 N   0  0  0  0  0  0  0  0  0  0  0  0
  -21.4300   16.0830  -26.7050 H   0  0  0  0  0  0  0  0  0  0  0  0
  -20.3790   14.3680  -27.0880 C   0  0  0  0  0  0  0  0  0  0  0  0
  -19.4450   13.5940  -26.9100 O   0  0  0  0  0  0  0  0  0  0  0  0
  -21.4210   14.0680  -28.0860 C   0  0  0  0  0  0  0  0  0  0  0  0
  -21.5050   12.8100  -28.5440 C   0  0  0  0  0  0  0  0  0  0  0  0
  -22.5500   12.4700  -29.5570 C   0  0  0  0  0  0  0  0  0  0  0  0
  -22.6440   11.3240  -29.9880 O   0  0  0  0  0  0  0  0  0  0  0  0
  -23.3680   13.5180  -29.9480 N   0  0  0  0  0  0  0  0  0  0  0  0
  -24.0950   13.3420  -30.6350 H   0  0  0  0  0  0  0  0  0  0  0  0
  -23.2510   14.7950  -29.4580 C   0  0  0  0  0  0  0  0  0  0  0  0
  -22.3160   15.1000  -28.5520 C   0  0  0  0  0  0  0  0  0  0  0  0
  -19.8220   17.6100  -25.3690 C   0  0  0  0  0  0  0  0  0  0  0  0
  -19.7370   18.1810  -26.6880 N   0  0  0  0  0  0  0  0  0  0  0  0
  -20.3480   17.8040  -27.4110 H   0  0  0  0  0  0  0  0  0  0  0  0
  -18.8900   19.2390  -26.9850 C   0  0  0  0  0  0  0  0  0  0  0  0
  -18.1410   19.7920  -26.1860 O   0  0  0  0  0  0  0  0  0  0  0  0
  -18.9880   19.6510  -28.4120 C   0  0  0  0  0  0  0  0  0  0  0  0
  -20.1410   20.1350  -28.8930 C   0  0  0  0  0  0  0  0  0  0  0  0
  -20.3060   20.5500  -30.2580 C   0  0  0  0  0  0  0  0  0  0  0  0
  -20.7850   21.9230  -30.5630 C   0  0  0  0  0  0  0  0  0  0  0  0
  -21.0520   22.7410  -29.6880 O   0  0  0  0  0  0  0  0  0  0  0  0
  -20.8970   22.1800  -31.9170 N   0  0  0  0  0  0  0  0  0  0  0  0
  -21.2180   23.0960  -32.2140 H   0  0  0  0  0  0  0  0  0  0  0  0
  -20.5870   21.2360  -32.8700 C   0  0  0  0  0  0  0  0  0  0  0  0
  -20.1700   20.0390  -32.6170 N   0  0  0  0  0  0  0  0  0  0  0  0
  -20.0400   19.7280  -31.2850 C   0  0  0  0  0  0  0  0  0  0  0  0
  1 24  1  1  0  0  0
  1  7  1  0  0  0  0
  3  2  1  0  0  0  0
  4  3  2  0  0  0  0
  5  9  2  0  0  0  0
  5  4  1  0  0  0  0
  6  5  1  0  0  0  0
  7  6  2  0  0  0  0
  7  8  1  0  0  0  0
  8 10  2  0  0  0  0
  9 11  1  0  0  0  0
 10  4  1  0  0  0  0
 11  2  2  0  0  0  0
 12  1  1  0  0  0  0
 13 12  1  0  0  0  0
 14 15  2  0  0  0  0
 14 12  1  0  0  0  0
 16 14  1  0  0  0  0
 17 16  2  0  0  0  0
 18 17  1  0  0  0  0
 19 18  2  0  0  0  0
 20 18  1  0  0  0  0
 20 22  1  0  0  0  0
 21 20  1  0  0  0  0
 22 23  2  0  0  0  0
 23 16  1  0  0  0  0
 25 24  1  0  0  0  0
 26 25  1  0  0  0  0
 27 25  1  0  0  0  0
 27 28  2  0  0  0  0
 29 27  1  0  0  0  0
 30 29  2  0  0  0  0
 31 30  1  0  0  0  0
 32 31  1  0  0  0  0
 32 33  2  0  0  0  0
 34 32  1  0  0  0  0
 35 34  1  0  0  0  0
 36 37  2  0  0  0  0
 36 34  1  0  0  0  0
 37 38  1  0  0  0  0
 38 31  2  0  0  0  0
M  END
>  <ADSCOR>
   -8.80

$$$$
11
 OpenBabel08042116023D

 37 40  0  0  1  0  0  0  0  0999 V2000
  -22.5900   14.2820  -29.8540 C   0  0  0  0  0  0  0  0  0  0  0  0
  -22.1250   15.5030  -29.3630 C   0  0  0  0  0  0  0  0  0  0  0  0
  -21.5160   15.5210  -28.1200 C   0  0  0  0  0  0  0  0  0  0  0  0
  -20.9770   16.7100  -27.3850 C   0  0  0  0  0  0  0  0  0  0  0  0
  -20.0710   16.0210  -26.3500 C   0  0  2  0  0  0  0  0  0  0  0  0
  -20.7300   14.6560  -26.0340 C   0  0  1  0  0  0  0  0  0  0  0  0
  -21.3750   14.3520  -27.3600 C   0  0  0  0  0  0  0  0  0  0  0  0
  -21.8470   13.1380  -27.8390 C   0  0  0  0  0  0  0  0  0  0  0  0
  -22.4520   13.1080  -29.0980 C   0  0  0  0  0  0  0  0  0  0  0  0
  -19.8640   16.8230  -25.1760 N   0  0  0  0  0  0  0  0  0  0  0  0
  -18.9160   17.1280  -24.9660 H   0  0  0  0  0  0  0  0  0  0  0  0
  -20.9110   17.2220  -24.3550 C   0  0  0  0  0  0  0  0  0  0  0  0
  -22.0930   16.9450  -24.5300 O   0  0  0  0  0  0  0  0  0  0  0  0
  -20.4400   18.0480  -23.2090 C   0  0  0  0  0  0  0  0  0  0  0  0
  -21.3030   18.4280  -22.2560 C   0  0  0  0  0  0  0  0  0  0  0  0
  -20.9180   19.2240  -21.1250 C   0  0  0  0  0  0  0  0  0  0  0  0
  -19.9000   20.2940  -21.2840 C   0  0  0  0  0  0  0  0  0  0  0  0
  -19.3590   20.5380  -22.3570 O   0  0  0  0  0  0  0  0  0  0  0  0
  -19.6300   20.9770  -20.1120 N   0  0  0  0  0  0  0  0  0  0  0  0
  -18.9430   21.7250  -20.1470 H   0  0  0  0  0  0  0  0  0  0  0  0
  -20.2570   20.6800  -18.9190 C   0  0  0  0  0  0  0  0  0  0  0  0
  -21.1440   19.7450  -18.7770 N   0  0  0  0  0  0  0  0  0  0  0  0
  -19.8450   21.5180  -17.7440 C   0  0  0  0  0  0  0  0  0  0  0  0
  -21.4520   19.0330  -19.9110 C   0  0  0  0  0  0  0  0  0  0  0  0
  -19.7230   13.6190  -25.5570 C   0  0  0  0  0  0  0  0  0  0  0  0
  -19.6270   13.6520  -24.1350 N   0  0  0  0  0  0  0  0  0  0  0  0
  -20.1790   12.9750  -23.5980 H   0  0  0  0  0  0  0  0  0  0  0  0
  -18.8250   14.5530  -23.4280 C   0  0  0  0  0  0  0  0  0  0  0  0
  -18.1170   15.4120  -23.9480 O   0  0  0  0  0  0  0  0  0  0  0  0
  -18.9280   14.3550  -21.9370 C   0  0  0  0  0  0  0  0  0  0  0  0
  -20.3430   14.3310  -21.5400 N   0  0  0  0  0  0  0  0  0  0  0  0
  -21.0580   13.1420  -21.6890 C   0  0  0  0  0  0  0  0  0  0  0  0
  -20.6130   12.0830  -22.1300 O   0  0  0  0  0  0  0  0  0  0  0  0
  -22.4900   13.2000  -21.2650 C   0  0  0  0  0  0  0  0  0  0  0  0
  -23.0000   14.3370  -20.7800 C   0  0  0  0  0  0  0  0  0  0  0  0
  -22.1900   15.5200  -20.6610 C   0  0  0  0  0  0  0  0  0  0  0  0
  -20.9070   15.4850  -21.0380 C   0  0  0  0  0  0  0  0  0  0  0  0
  1  2  2  0  0  0  0
  1  9  1  0  0  0  0
  2  3  1  0  0  0  0
  3  4  1  0  0  0  0
  3  7  2  0  0  0  0
  4  5  1  0  0  0  0
  5  6  1  0  0  0  0
  5 10  1  1  0  0  0
  6 25  1  6  0  0  0
  7  6  1  0  0  0  0
  8  7  1  0  0  0  0
  9  8  2  0  0  0  0
 10 11  1  0  0  0  0
 10 12  1  0  0  0  0
 12 14  1  0  0  0  0
 13 12  2  0  0  0  0
 14 15  2  0  0  0  0
 15 16  1  0  0  0  0
 16 24  2  0  0  0  0
 17 16  1  0  0  0  0
 17 19  1  0  0  0  0
 18 17  2  0  0  0  0
 19 21  1  0  0  0  0
 20 19  1  0  0  0  0
 21 22  2  0  0  0  0
 21 23  1  0  0  0  0
 24 22  1  0  0  0  0
 25 26  1  0  0  0  0
 26 27  1  0  0  0  0
 26 28  1  0  0  0  0
 28 30  1  0  0  0  0
 29 28  2  0  0  0  0
 30 31  1  0  0  0  0
 31 37  1  0  0  0  0
 32 31  1  0  0  0  0
 32 34  1  0  0  0  0
 33 32  2  0  0  0  0
 34 35  2  0  0  0  0
 35 36  1  0  0  0  0
 37 36  2  0  0  0  0
M  END
>  <ADSCOR>
   -8.68

$$$$
12
 OpenBabel08042116023D

 38 41  0  0  1  0  0  0  0  0999 V2000
  -19.6900   16.1470  -25.7180 C   0  0  1  0  0  0  0  0  0  0  0  0
  -21.4390   13.5480  -20.0030 C   0  0  0  0  0  0  0  0  0  0  0  0
  -20.1780   13.7990  -20.5430 C   0  0  0  0  0  0  0  0  0  0  0  0
  -20.0450   14.3770  -21.8150 C   0  0  0  0  0  0  0  0  0  0  0  0
  -21.2080   14.7040  -22.5510 C   0  0  0  0  0  0  0  0  0  0  0  0
  -21.0750   15.2820  -23.8250 C   0  0  0  0  0  0  0  0  0  0  0  0
  -19.8130   15.5330  -24.3650 C   0  0  0  0  0  0  0  0  0  0  0  0
  -18.6690   15.2110  -23.6410 C   0  0  0  0  0  0  0  0  0  0  0  0
  -22.4700   14.4450  -21.9930 C   0  0  0  0  0  0  0  0  0  0  0  0
  -18.7820   14.6350  -22.3750 C   0  0  0  0  0  0  0  0  0  0  0  0
  -22.5830   13.8700  -20.7270 C   0  0  0  0  0  0  0  0  0  0  0  0
  -20.6370   15.5440  -26.6800 N   0  0  0  0  0  0  0  0  0  0  0  0
  -21.5650   15.9140  -26.7490 H   0  0  0  0  0  0  0  0  0  0  0  0
  -20.2790   14.4970  -27.4760 C   0  0  0  0  0  0  0  0  0  0  0  0
  -19.1950   13.9240  -27.5240 O   0  0  0  0  0  0  0  0  0  0  0  0
  -21.3920   14.0730  -28.3450 C   0  0  0  0  0  0  0  0  0  0  0  0
  -22.5270   14.9360  -28.6970 C   0  0  0  0  0  0  0  0  0  0  0  0
  -23.5240   14.6110  -29.4520 N   0  0  0  0  0  0  0  0  0  0  0  0
  -23.5050   13.3520  -29.9570 N   0  0  0  0  0  0  0  0  0  0  0  0
  -24.3000   13.1240  -30.5460 H   0  0  0  0  0  0  0  0  0  0  0  0
  -22.5190   12.4190  -29.7280 C   0  0  0  0  0  0  0  0  0  0  0  0
  -22.5310   11.2860  -30.2030 O   0  0  0  0  0  0  0  0  0  0  0  0
  -21.3990   12.8420  -28.8550 C   0  0  0  0  0  0  0  0  0  0  0  0
  -19.8700   17.6830  -25.7360 C   0  0  0  0  0  0  0  0  0  0  0  0
  -19.7160   18.2520  -24.4230 N   0  0  0  0  0  0  0  0  0  0  0  0
  -19.3730   17.6520  -23.6750 H   0  0  0  0  0  0  0  0  0  0  0  0
  -20.0100   19.5780  -24.1210 C   0  0  0  0  0  0  0  0  0  0  0  0
  -20.4280   20.4070  -24.9240 O   0  0  0  0  0  0  0  0  0  0  0  0
  -19.7550   19.8850  -22.6680 C   0  0  0  0  0  0  0  0  0  0  0  0
  -20.6740   19.1020  -21.8300 N   0  0  0  0  0  0  0  0  0  0  0  0
  -21.7510   18.4990  -22.4390 N   0  0  0  0  0  0  0  0  0  0  0  0
  -21.8530   18.6290  -23.4410 H   0  0  0  0  0  0  0  0  0  0  0  0
  -22.6580   17.7480  -21.7370 C   0  0  0  0  0  0  0  0  0  0  0  0
  -23.6290   17.1950  -22.2500 O   0  0  0  0  0  0  0  0  0  0  0  0
  -22.4180   17.6210  -20.2870 C   0  0  0  0  0  0  0  0  0  0  0  0
  -21.3730   18.2110  -19.7100 C   0  0  0  0  0  0  0  0  0  0  0  0
  -20.4100   19.0150  -20.4930 C   0  0  0  0  0  0  0  0  0  0  0  0
  -19.4610   19.5390  -19.9110 O   0  0  0  0  0  0  0  0  0  0  0  0
  1 24  1  1  0  0  0
  1  7  1  0  0  0  0
  3  2  1  0  0  0  0
  4  3  2  0  0  0  0
  5  9  2  0  0  0  0
  5  4  1  0  0  0  0
  6  5  1  0  0  0  0
  7  6  2  0  0  0  0
  7  8  1  0  0  0  0
  8 10  2  0  0  0  0
  9 11  1  0  0  0  0
 10  4  1  0  0  0  0
 11  2  2  0  0  0  0
 12  1  1  0  0  0  0
 13 12  1  0  0  0  0
 14 12  1  0  0  0  0
 15 14  2  0  0  0  0
 16 14  1  0  0  0  0
 17 16  1  0  0  0  0
 18 17  2  0  0  0  0
 19 21  1  0  0  0  0
 19 18  1  0  0  0  0
 20 19  1  0  0  0  0
 21 23  1  0  0  0  0
 22 21  2  0  0  0  0
 23 16  2  0  0  0  0
 24 25  1  0  0  0  0
 25 27  1  0  0  0  0
 25 26  1  0  0  0  0
 27 29  1  0  0  0  0
 28 27  2  0  0  0  0
 29 30  1  0  0  0  0
 30 37  1  0  0  0  0
 31 30  1  0  0  0  0
 31 33  1  0  0  0  0
 32 31  1  0  0  0  0
 33 35  1  0  0  0  0
 34 33  2  0  0  0  0
 35 36  2  0  0  0  0
 37 38  2  0  0  0  0
 37 36  1  0  0  0  0
M  END
>  <ADSCOR>
   -8.34

$$$$
13
 OpenBabel08042116023D

 36 39  0  0  1  0  0  0  0  0999 V2000
  -24.0130   17.4050  -32.2890 C   0  0  0  0  0  0  0  0  0  0  0  0
  -23.9490   16.5350  -31.1990 C   0  0  0  0  0  0  0  0  0  0  0  0
  -22.7970   16.5300  -30.4300 C   0  0  0  0  0  0  0  0  0  0  0  0
  -22.5150   15.7180  -29.2030 C   0  0  0  0  0  0  0  0  0  0  0  0
  -20.9820   15.8490  -29.1140 C   0  0  1  0  0  0  0  0  0  0  0  0
  -20.6170   17.2220  -29.7290 C   0  0  1  0  0  0  0  0  0  0  0  0
  -21.7270   17.3850  -30.7250 C   0  0  0  0  0  0  0  0  0  0  0  0
  -21.7870   18.2550  -31.8010 C   0  0  0  0  0  0  0  0  0  0  0  0
  -22.9390   18.2580  -32.5890 C   0  0  0  0  0  0  0  0  0  0  0  0
  -20.4920   15.6440  -27.7790 N   0  0  0  0  0  0  0  0  0  0  0  0
  -20.4610   16.4460  -27.1510 H   0  0  0  0  0  0  0  0  0  0  0  0
  -20.1030   14.3950  -27.3130 C   0  0  0  0  0  0  0  0  0  0  0  0
  -20.1330   13.3560  -27.9640 O   0  0  0  0  0  0  0  0  0  0  0  0
  -19.6380   14.4430  -25.8990 C   0  0  0  0  0  0  0  0  0  0  0  0
  -20.3690   13.8740  -24.9330 C   0  0  0  0  0  0  0  0  0  0  0  0
  -19.9810   13.8840  -23.5500 C   0  0  0  0  0  0  0  0  0  0  0  0
  -18.8590   14.7480  -23.1000 C   0  0  0  0  0  0  0  0  0  0  0  0
  -18.2330   15.4730  -23.8670 O   0  0  0  0  0  0  0  0  0  0  0  0
  -18.5980   14.6520  -21.7450 N   0  0  0  0  0  0  0  0  0  0  0  0
  -17.8460   15.2110  -21.3540 H   0  0  0  0  0  0  0  0  0  0  0  0
  -19.3220   13.8270  -20.9170 C   0  0  0  0  0  0  0  0  0  0  0  0
  -20.3000   13.0710  -21.2950 N   0  0  0  0  0  0  0  0  0  0  0  0
  -20.6040   13.1250  -22.6350 C   0  0  0  0  0  0  0  0  0  0  0  0
  -20.6050   18.3010  -28.7760 N   0  0  0  0  0  0  0  0  0  0  0  0
  -21.3440   18.9980  -28.8260 H   0  0  0  0  0  0  0  0  0  0  0  0
  -19.6350   18.4360  -27.7920 C   0  0  0  0  0  0  0  0  0  0  0  0
  -18.6900   17.6670  -27.6220 O   0  0  0  0  0  0  0  0  0  0  0  0
  -19.8430   19.6580  -26.9180 C   0  0  0  0  0  0  0  0  0  0  0  0
  -19.3260   20.8610  -27.6250 C   0  0  0  0  0  0  0  0  0  0  0  0
  -19.9930   21.4370  -28.8250 C   0  0  0  0  0  0  0  0  0  0  0  0
  -19.2590   22.5200  -29.2470 O   0  0  0  0  0  0  0  0  0  0  0  0
  -18.2190   22.6280  -28.3530 N   0  0  0  0  0  0  0  0  0  0  0  0
  -17.4560   23.2740  -28.4960 H   0  0  0  0  0  0  0  0  0  0  0  0
  -21.0100   21.0170  -29.3470 O   0  0  0  0  0  0  0  0  0  0  0  0
  -18.2590   21.6420  -27.4220 C   0  0  0  0  0  0  0  0  0  0  0  0
  -17.2050   21.5380  -26.3800 C   0  0  0  0  0  0  0  0  0  0  0  0
  1  2  1  0  0  0  0
  2  3  2  0  0  0  0
  3  4  1  0  0  0  0
  4  5  1  0  0  0  0
  5 10  1  1  0  0  0
  6  5  1  0  0  0  0
  6 24  1  1  0  0  0
  7  3  1  0  0  0  0
  7  6  1  0  0  0  0
  8  7  2  0  0  0  0
  9  1  2  0  0  0  0
  9  8  1  0  0  0  0
 10 12  1  0  0  0  0
 10 11  1  0  0  0  0
 12 14  1  0  0  0  0
 13 12  2  0  0  0  0
 14 15  2  0  0  0  0
 15 16  1  0  0  0  0
 16 17  1  0  0  0  0
 16 23  2  0  0  0  0
 17 19  1  0  0  0  0
 18 17  2  0  0  0  0
 19 20  1  0  0  0  0
 19 21  1  0  0  0  0
 22 21  2  0  0  0  0
 23 22  1  0  0  0  0
 24 26  1  0  0  0  0
 25 24  1  0  0  0  0
 26 27  2  0  0  0  0
 26 28  1  0  0  0  0
 29 35  2  0  0  0  0
 29 28  1  0  0  0  0
 30 29  1  0  0  0  0
 31 30  1  0  0  0  0
 31 32  1  0  0  0  0
 32 35  1  0  0  0  0
 33 32  1  0  0  0  0
 34 30  2  0  0  0  0
 35 36  1  0  0  0  0
M  END
>  <ADSCOR>
   -8.42

$$$$
14
 OpenBabel08042116023D

 42 45  0  0  1  0  0  0  0  0999 V2000
  -20.2320   16.3780  -25.7510 C   0  0  1  0  0  0  0  0  0  0  0  0
  -22.0330   12.0640  -30.2930 C   0  0  0  0  0  0  0  0  0  0  0  0
  -20.8480   12.7820  -30.1370 C   0  0  0  0  0  0  0  0  0  0  0  0
  -20.6840   13.6710  -29.0610 C   0  0  0  0  0  0  0  0  0  0  0  0
  -21.7390   13.8320  -28.1310 C   0  0  0  0  0  0  0  0  0  0  0  0
  -21.5750   14.7200  -27.0550 C   0  0  0  0  0  0  0  0  0  0  0  0
  -20.3900   15.4390  -26.8990 C   0  0  0  0  0  0  0  0  0  0  0  0
  -19.3530   15.2810  -27.8140 C   0  0  0  0  0  0  0  0  0  0  0  0
  -22.9250   13.1000  -28.3030 C   0  0  0  0  0  0  0  0  0  0  0  0
  -19.4980   14.4020  -28.8880 C   0  0  0  0  0  0  0  0  0  0  0  0
  -23.0700   12.2220  -29.3770 C   0  0  0  0  0  0  0  0  0  0  0  0
  -20.4830   17.7790  -26.1500 N   0  0  0  0  0  0  0  0  0  0  0  0
  -21.2030   17.9720  -26.8180 H   0  0  0  0  0  0  0  0  0  0  0  0
  -19.7590   18.8180  -25.6340 C   0  0  0  0  0  0  0  0  0  0  0  0
  -18.8490   18.7330  -24.8110 O   0  0  0  0  0  0  0  0  0  0  0  0
  -20.2030   20.1510  -26.2050 C   0  0  0  0  0  0  0  0  0  0  0  0
  -19.1700   21.1800  -25.9070 C   0  0  0  0  0  0  0  0  0  0  0  0
  -19.5260   22.1970  -25.0540 N   0  0  0  0  0  0  0  0  0  0  0  0
  -20.4680   22.1960  -24.6730 H   0  0  0  0  0  0  0  0  0  0  0  0
  -18.6720   23.2260  -24.6830 C   0  0  0  0  0  0  0  0  0  0  0  0
  -19.0080   24.1290  -23.9170 O   0  0  0  0  0  0  0  0  0  0  0  0
  -17.3980   23.1530  -25.2500 N   0  0  0  0  0  0  0  0  0  0  0  0
  -16.7410   23.8880  -25.0040 H   0  0  0  0  0  0  0  0  0  0  0  0
  -16.9480   22.1700  -26.1180 C   0  0  0  0  0  0  0  0  0  0  0  0
  -15.8190   22.1350  -26.5990 O   0  0  0  0  0  0  0  0  0  0  0  0
  -17.9450   21.1230  -26.4440 C   0  0  0  0  0  0  0  0  0  0  0  0
  -21.1220   16.0400  -24.5300 C   0  0  0  0  0  0  0  0  0  0  0  0
  -21.1100   17.0980  -23.5540 N   0  0  0  0  0  0  0  0  0  0  0  0
  -20.3450   17.7680  -23.5860 H   0  0  0  0  0  0  0  0  0  0  0  0
  -22.1190   17.2490  -22.6130 C   0  0  0  0  0  0  0  0  0  0  0  0
  -23.1030   16.5240  -22.5060 O   0  0  0  0  0  0  0  0  0  0  0  0
  -21.8810   18.4170  -21.7220 C   0  0  0  0  0  0  0  0  0  0  0  0
  -20.9060   18.3760  -20.8050 C   0  0  0  0  0  0  0  0  0  0  0  0
  -20.6220   19.4660  -19.9150 C   0  0  0  0  0  0  0  0  0  0  0  0
  -19.5520   20.4390  -20.2510 C   0  0  0  0  0  0  0  0  0  0  0  0
  -18.8820   20.3590  -21.2750 O   0  0  0  0  0  0  0  0  0  0  0  0
  -19.3920   21.4330  -19.3020 N   0  0  0  0  0  0  0  0  0  0  0  0
  -18.6750   22.1350  -19.4670 H   0  0  0  0  0  0  0  0  0  0  0  0
  -20.1600   21.4980  -18.1590 C   0  0  0  0  0  0  0  0  0  0  0  0
  -21.0950   20.6490  -17.8620 N   0  0  0  0  0  0  0  0  0  0  0  0
  -19.8550   22.6410  -17.2340 C   0  0  0  0  0  0  0  0  0  0  0  0
  -21.2990   19.6400  -18.7700 C   0  0  0  0  0  0  0  0  0  0  0  0
  1 27  1  1  0  0  0
  2  3  2  0  0  0  0
  2 11  1  0  0  0  0
  3  4  1  0  0  0  0
  4 10  2  0  0  0  0
  4  5  1  0  0  0  0
  5  6  2  0  0  0  0
  6  7  1  0  0  0  0
  7  1  1  0  0  0  0
  8  7  2  0  0  0  0
  9  5  1  0  0  0  0
 10  8  1  0  0  0  0
 11  9  2  0  0  0  0
 12  1  1  0  0  0  0
 12 14  1  0  0  0  0
 13 12  1  0  0  0  0
 14 15  2  0  0  0  0
 16 17  1  0  0  0  0
 16 14  1  0  0  0  0
 17 18  1  0  0  0  0
 18 20  1  0  0  0  0
 18 19  1  0  0  0  0
 20 21  2  0  0  0  0
 22 23  1  0  0  0  0
 22 20  1  0  0  0  0
 24 22  1  0  0  0  0
 25 24  2  0  0  0  0
 26 24  1  0  0  0  0
 26 17  2  0  0  0  0
 27 28  1  0  0  0  0
 28 30  1  0  0  0  0
 29 28  1  0  0  0  0
 30 31  2  0  0  0  0
 30 32  1  0  0  0  0
 32 33  2  0  0  0  0
 33 34  1  0  0  0  0
 34 42  2  0  0  0  0
 35 34  1  0  0  0  0
 35 37  1  0  0  0  0
 36 35  2  0  0  0  0
 37 39  1  0  0  0  0
 38 37  1  0  0  0  0
 39 40  2  0  0  0  0
 39 41  1  0  0  0  0
 42 40  1  0  0  0  0
M  END
>  <ADSCOR>
   -9.92

$$$$
15
 OpenBabel08042116023D

 38 40  0  0  1  0  0  0  0  0999 V2000
  -20.2650   16.0430  -25.2190 C   0  0  1  0  0  0  0  0  0  0  0  0
  -21.8200   13.9670  -21.7780 C   0  0  0  0  0  0  0  0  0  0  0  0
  -20.6810   13.4890  -22.4270 C   0  0  0  0  0  0  0  0  0  0  0  0
  -20.1790   14.1610  -23.5400 C   0  0  0  0  0  0  0  0  0  0  0  0
  -20.8140   15.3120  -24.0060 C   0  0  0  0  0  0  0  0  0  0  0  0
  -21.9520   15.7910  -23.3580 C   0  0  0  0  0  0  0  0  0  0  0  0
  -22.4560   15.1190  -22.2430 C   0  0  0  0  0  0  0  0  0  0  0  0
  -21.1830   15.9220  -26.3590 N   0  0  0  0  0  0  0  0  0  0  0  0
  -22.1620   15.7760  -26.1780 H   0  0  0  0  0  0  0  0  0  0  0  0
  -20.7550   16.0010  -27.6630 C   0  0  0  0  0  0  0  0  0  0  0  0
  -19.5970   16.1750  -28.0340 O   0  0  0  0  0  0  0  0  0  0  0  0
  -21.9150   15.8390  -28.6120 C   0  0  0  0  0  0  0  0  0  0  0  0
  -22.2060   14.4080  -28.7950 N   0  0  0  0  0  0  0  0  0  0  0  0
  -22.0570   13.7400  -30.0540 C   0  0  0  0  0  0  0  0  0  0  0  0
  -22.4800   12.3430  -29.6600 C   0  0  0  0  0  0  0  0  0  0  0  0
  -22.5180   11.3890  -30.4250 O   0  0  0  0  0  0  0  0  0  0  0  0
  -22.8060   12.3420  -28.3260 N   0  0  0  0  0  0  0  0  0  0  0  0
  -23.1220   11.5260  -27.8160 H   0  0  0  0  0  0  0  0  0  0  0  0
  -22.6470   13.5940  -27.7670 C   0  0  0  0  0  0  0  0  0  0  0  0
  -22.8610   13.8950  -26.6010 O   0  0  0  0  0  0  0  0  0  0  0  0
  -19.9590   17.5240  -24.9460 C   0  0  0  0  0  0  0  0  0  0  0  0
  -20.2070   18.3520  -26.1030 N   0  0  0  0  0  0  0  0  0  0  0  0
  -21.1740   18.5050  -26.3760 H   0  0  0  0  0  0  0  0  0  0  0  0
  -19.1820   18.9600  -26.8070 C   0  0  0  0  0  0  0  0  0  0  0  0
  -17.9870   18.8710  -26.5420 O   0  0  0  0  0  0  0  0  0  0  0  0
  -19.6940   19.7620  -27.9530 C   0  0  0  0  0  0  0  0  0  0  0  0
  -19.6070   19.2790  -29.1980 C   0  0  0  0  0  0  0  0  0  0  0  0
  -20.0790   20.0010  -30.3500 C   0  0  0  0  0  0  0  0  0  0  0  0
  -19.8440   21.4670  -30.4710 C   0  0  0  0  0  0  0  0  0  0  0  0
  -19.2490   22.1120  -29.6130 O   0  0  0  0  0  0  0  0  0  0  0  0
  -20.3550   22.0200  -31.6320 N   0  0  0  0  0  0  0  0  0  0  0  0
  -20.2300   23.0160  -31.7790 H   0  0  0  0  0  0  0  0  0  0  0  0
  -21.0290   21.2930  -32.6040 C   0  0  0  0  0  0  0  0  0  0  0  0
  -21.4650   22.0110  -33.6870 N   0  0  0  0  0  0  0  0  0  0  0  0
  -21.2790   22.9860  -33.7130 H   0  0  0  0  0  0  0  0  0  0  0  0
  -21.9530   21.5280  -34.4070 H   0  0  0  0  0  0  0  0  0  0  0  0
  -21.2290   20.0110  -32.4850 N   0  0  0  0  0  0  0  0  0  0  0  0
  -20.7420   19.4060  -31.3540 C   0  0  0  0  0  0  0  0  0  0  0  0
  1 21  1  1  0  0  0
  1  5  1  0  0  0  0
  3  2  2  0  0  0  0
  4  3  1  0  0  0  0
  5  4  2  0  0  0  0
  5  6  1  0  0  0  0
  6  7  2  0  0  0  0
  7  2  1  0  0  0  0
  8  9  1  0  0  0  0
  8  1  1  0  0  0  0
 10  8  1  0  0  0  0
 11 10  2  0  0  0  0
 12 10  1  0  0  0  0
 13 12  1  0  0  0  0
 13 19  1  0  0  0  0
 14 15  1  0  0  0  0
 14 13  1  0  0  0  0
 15 17  1  0  0  0  0
 16 15  2  0  0  0  0
 17 18  1  0  0  0  0
 17 19  1  0  0  0  0
 19 20  2  0  0  0  0
 22 21  1  0  0  0  0
 23 22  1  0  0  0  0
 24 25  2  0  0  0  0
 24 22  1  0  0  0  0
 26 24  1  0  0  0  0
 27 26  2  0  0  0  0
 28 27  1  0  0  0  0
 29 28  1  0  0  0  0
 29 30  2  0  0  0  0
 31 29  1  0  0  0  0
 32 31  1  0  0  0  0
 33 37  2  0  0  0  0
 33 31  1  0  0  0  0
 34 33  1  0  0  0  0
 35 34  1  0  0  0  0
 36 34  1  0  0  0  0
 37 38  1  0  0  0  0
 38 28  2  0  0  0  0
M  END
>  <ADSCOR>
   -7.99

$$$$
16
 OpenBabel08042116023D

 37 39  0  0  1  0  0  0  0  0999 V2000
  -20.7530   15.6960  -27.6770 C   0  0  1  0  0  0  0  0  0  0  0  0
  -22.6320   12.4070  -29.7310 C   0  0  0  0  0  0  0  0  0  0  0  0
  -23.1540   12.8630  -28.5210 C   0  0  0  0  0  0  0  0  0  0  0  0
  -22.5450   13.9280  -27.8560 C   0  0  0  0  0  0  0  0  0  0  0  0
  -21.4150   14.5360  -28.4020 C   0  0  0  0  0  0  0  0  0  0  0  0
  -20.8930   14.0800  -29.6120 C   0  0  0  0  0  0  0  0  0  0  0  0
  -21.5020   13.0150  -30.2770 C   0  0  0  0  0  0  0  0  0  0  0  0
  -20.8050   15.5030  -26.2470 N   0  0  0  0  0  0  0  0  0  0  0  0
  -21.3690   16.1500  -25.7040 H   0  0  0  0  0  0  0  0  0  0  0  0
  -20.1520   14.4550  -25.6210 C   0  0  0  0  0  0  0  0  0  0  0  0
  -19.4770   13.5990  -26.1840 O   0  0  0  0  0  0  0  0  0  0  0  0
  -20.3640   14.4690  -24.1470 C   0  0  0  0  0  0  0  0  0  0  0  0
  -21.6050   14.4110  -23.6470 C   0  0  0  0  0  0  0  0  0  0  0  0
  -21.8810   14.4220  -22.2380 C   0  0  0  0  0  0  0  0  0  0  0  0
  -21.3010   13.3660  -21.3510 C   0  0  0  0  0  0  0  0  0  0  0  0
  -20.5810   12.4740  -21.7920 O   0  0  0  0  0  0  0  0  0  0  0  0
  -21.6370   13.4760  -20.0080 N   0  0  0  0  0  0  0  0  0  0  0  0
  -21.2590   12.7720  -19.3810 H   0  0  0  0  0  0  0  0  0  0  0  0
  -22.4440   14.4600  -19.4350 C   0  0  0  0  0  0  0  0  0  0  0  0
  -22.6980   14.4950  -18.2300 O   0  0  0  0  0  0  0  0  0  0  0  0
  -22.9330   15.3920  -20.3350 N   0  0  0  0  0  0  0  0  0  0  0  0
  -23.5280   16.1370  -19.9840 H   0  0  0  0  0  0  0  0  0  0  0  0
  -22.6550   15.3600  -21.6740 C   0  0  0  0  0  0  0  0  0  0  0  0
  -19.3020   15.9390  -28.1230 C   0  0  0  0  0  0  0  0  0  0  0  0
  -19.1400   17.2180  -28.7650 N   0  0  0  0  0  0  0  0  0  0  0  0
  -18.4640   17.2950  -29.5220 H   0  0  0  0  0  0  0  0  0  0  0  0
  -19.8600   18.3520  -28.4050 C   0  0  0  0  0  0  0  0  0  0  0  0
  -20.7030   18.4000  -27.5140 O   0  0  0  0  0  0  0  0  0  0  0  0
  -19.4760   19.5420  -29.2480 C   0  0  0  0  0  0  0  0  0  0  0  0
  -18.6730   20.4760  -28.4460 N   0  0  0  0  0  0  0  0  0  0  0  0
  -17.6570   20.0430  -27.5320 C   0  0  0  0  0  0  0  0  0  0  0  0
  -17.1860   21.3840  -27.0110 C   0  0  0  0  0  0  0  0  0  0  0  0
  -16.2990   21.5310  -26.1810 O   0  0  0  0  0  0  0  0  0  0  0  0
  -17.9150   22.3740  -27.6230 N   0  0  0  0  0  0  0  0  0  0  0  0
  -17.7920   23.3650  -27.4470 H   0  0  0  0  0  0  0  0  0  0  0  0
  -18.8340   21.8500  -28.5080 C   0  0  0  0  0  0  0  0  0  0  0  0
  -19.6180   22.4900  -29.1970 O   0  0  0  0  0  0  0  0  0  0  0  0
  1 24  1  6  0  0  0
  1  8  1  0  0  0  0
  2  3  1  0  0  0  0
  3  4  2  0  0  0  0
  5  4  1  0  0  0  0
  5  1  1  0  0  0  0
  6  5  2  0  0  0  0
  7  2  2  0  0  0  0
  7  6  1  0  0  0  0
  8  9  1  0  0  0  0
  8 10  1  0  0  0  0
 10 12  1  0  0  0  0
 11 10  2  0  0  0  0
 12 13  2  0  0  0  0
 13 14  1  0  0  0  0
 14 23  2  0  0  0  0
 14 15  1  0  0  0  0
 15 17  1  0  0  0  0
 16 15  2  0  0  0  0
 17 19  1  0  0  0  0
 17 18  1  0  0  0  0
 19 20  2  0  0  0  0
 21 22  1  0  0  0  0
 21 19  1  0  0  0  0
 23 21  1  0  0  0  0
 25 27  1  0  0  0  0
 25 24  1  0  0  0  0
 26 25  1  0  0  0  0
 27 28  2  0  0  0  0
 29 30  1  0  0  0  0
 29 27  1  0  0  0  0
 30 31  1  0  0  0  0
 31 32  1  0  0  0  0
 32 33  2  0  0  0  0
 34 35  1  0  0  0  0
 34 32  1  0  0  0  0
 36 30  1  0  0  0  0
 36 34  1  0  0  0  0
 37 36  2  0  0  0  0
M  END
>  <ADSCOR>
   -9.56

$$$$
17
 OpenBabel08042116023D

 37 40  0  0  1  0  0  0  0  0999 V2000
  -21.4190   14.7660  -21.0470 C   0  0  0  0  0  0  0  0  0  0  0  0
  -21.2940   15.9250  -21.8140 C   0  0  0  0  0  0  0  0  0  0  0  0
  -20.8090   15.8090  -23.1060 C   0  0  0  0  0  0  0  0  0  0  0  0
  -20.6240   16.8970  -24.1190 C   0  0  0  0  0  0  0  0  0  0  0  0
  -19.6850   16.2030  -25.1240 C   0  0  1  0  0  0  0  0  0  0  0  0
  -20.0100   14.6900  -25.0640 C   0  0  1  0  0  0  0  0  0  0  0  0
  -20.4680   14.5600  -23.6410 C   0  0  0  0  0  0  0  0  0  0  0  0
  -20.5960   13.4050  -22.8880 C   0  0  0  0  0  0  0  0  0  0  0  0
  -21.0720   13.5140  -21.5800 C   0  0  0  0  0  0  0  0  0  0  0  0
  -19.7650   16.7790  -26.4380 N   0  0  0  0  0  0  0  0  0  0  0  0
  -20.2510   16.2520  -27.1630 H   0  0  0  0  0  0  0  0  0  0  0  0
  -19.2440   18.0310  -26.7340 C   0  0  0  0  0  0  0  0  0  0  0  0
  -18.6750   18.7670  -25.9360 O   0  0  0  0  0  0  0  0  0  0  0  0
  -19.4580   18.4050  -28.1600 C   0  0  0  0  0  0  0  0  0  0  0  0
  -19.9210   19.6210  -28.4720 C   0  0  0  0  0  0  0  0  0  0  0  0
  -20.1500   20.0470  -29.8250 C   0  0  0  0  0  0  0  0  0  0  0  0
  -20.3290   21.4910  -30.1280 C   0  0  0  0  0  0  0  0  0  0  0  0
  -20.2870   22.3600  -29.2620 O   0  0  0  0  0  0  0  0  0  0  0  0
  -20.5430   21.7500  -31.4700 N   0  0  0  0  0  0  0  0  0  0  0  0
  -20.6740   22.7130  -31.7640 H   0  0  0  0  0  0  0  0  0  0  0  0
  -20.5830   20.7480  -32.4110 C   0  0  0  0  0  0  0  0  0  0  0  0
  -20.4290   19.4900  -32.1600 N   0  0  0  0  0  0  0  0  0  0  0  0
  -20.2140   19.1720  -30.8410 C   0  0  0  0  0  0  0  0  0  0  0  0
  -21.0370   14.2800  -25.9850 N   0  0  0  0  0  0  0  0  0  0  0  0
  -21.9710   14.1030  -25.6180 H   0  0  0  0  0  0  0  0  0  0  0  0
  -20.8230   14.1110  -27.3490 C   0  0  0  0  0  0  0  0  0  0  0  0
  -19.7500   14.2900  -27.9210 O   0  0  0  0  0  0  0  0  0  0  0  0
  -22.0790   13.6740  -28.0580 C   0  0  0  0  0  0  0  0  0  0  0  0
  -22.2490   14.4610  -29.2890 N   0  0  0  0  0  0  0  0  0  0  0  0
  -22.3330   13.8160  -30.5260 C   0  0  0  0  0  0  0  0  0  0  0  0
  -22.2780   12.5950  -30.6920 O   0  0  0  0  0  0  0  0  0  0  0  0
  -22.4930   14.6870  -31.6110 N   0  0  0  0  0  0  0  0  0  0  0  0
  -22.5600   14.2590  -32.5300 H   0  0  0  0  0  0  0  0  0  0  0  0
  -22.5700   16.0700  -31.5620 C   0  0  0  0  0  0  0  0  0  0  0  0
  -22.7100   16.7950  -32.5420 O   0  0  0  0  0  0  0  0  0  0  0  0
  -22.4680   16.6440  -30.2050 C   0  0  0  0  0  0  0  0  0  0  0  0
  -22.3170   15.8270  -29.1610 C   0  0  0  0  0  0  0  0  0  0  0  0
  2  1  2  0  0  0  0
  3  2  1  0  0  0  0
  4  3  1  0  0  0  0
  5 10  1  6  0  0  0
  5  6  1  0  0  0  0
  5  4  1  0  0  0  0
  6 24  1  6  0  0  0
  6  7  1  0  0  0  0
  7  3  2  0  0  0  0
  7  8  1  0  0  0  0
  8  9  2  0  0  0  0
  9  1  1  0  0  0  0
 11 10  1  0  0  0  0
 12 10  1  0  0  0  0
 12 13  2  0  0  0  0
 14 12  1  0  0  0  0
 15 14  2  0  0  0  0
 16 15  1  0  0  0  0
 17 16  1  0  0  0  0
 17 18  2  0  0  0  0
 19 17  1  0  0  0  0
 20 19  1  0  0  0  0
 21 22  2  0  0  0  0
 21 19  1  0  0  0  0
 22 23  1  0  0  0  0
 23 16  2  0  0  0  0
 24 25  1  0  0  0  0
 26 24  1  0  0  0  0
 27 26  2  0  0  0  0
 28 26  1  0  0  0  0
 29 37  1  0  0  0  0
 29 28  1  0  0  0  0
 30 29  1  0  0  0  0
 31 30  2  0  0  0  0
 32 34  1  0  0  0  0
 32 30  1  0  0  0  0
 33 32  1  0  0  0  0
 34 36  1  0  0  0  0
 35 34  2  0  0  0  0
 36 37  2  0  0  0  0
M  END
>  <ADSCOR>
   -8.97

$$$$
18
 OpenBabel08042116023D

 39 42  0  0  1  0  0  0  0  0999 V2000
  -20.1220   19.3240  -29.1840 C   0  0  1  0  0  0  0  0  0  0  0  0
  -21.2910   12.9250  -29.5930 C   0  0  0  0  0  0  0  0  0  0  0  0
  -20.2190   13.6220  -29.0360 C   0  0  0  0  0  0  0  0  0  0  0  0
  -20.1840   15.0260  -29.0660 C   0  0  0  0  0  0  0  0  0  0  0  0
  -21.2500   15.7310  -29.6710 C   0  0  0  0  0  0  0  0  0  0  0  0
  -21.2140   17.1360  -29.7020 C   0  0  0  0  0  0  0  0  0  0  0  0
  -20.1430   17.8330  -29.1440 C   0  0  0  0  0  0  0  0  0  0  0  0
  -19.0940   17.1380  -28.5490 C   0  0  0  0  0  0  0  0  0  0  0  0
  -22.3210   15.0140  -30.2280 C   0  0  0  0  0  0  0  0  0  0  0  0
  -19.1130   15.7440  -28.5090 C   0  0  0  0  0  0  0  0  0  0  0  0
  -22.3390   13.6190  -30.1880 C   0  0  0  0  0  0  0  0  0  0  0  0
  -19.0680   19.8800  -28.3110 N   0  0  0  0  0  0  0  0  0  0  0  0
  -18.7170   19.3220  -27.5580 H   0  0  0  0  0  0  0  0  0  0  0  0
  -18.5560   21.1370  -28.4990 C   0  0  0  0  0  0  0  0  0  0  0  0
  -18.8840   21.9350  -29.3730 O   0  0  0  0  0  0  0  0  0  0  0  0
  -17.5040   21.4320  -27.4590 C   0  0  0  0  0  0  0  0  0  0  0  0
  -18.1520   21.8120  -26.1960 N   0  0  0  0  0  0  0  0  0  0  0  0
  -18.2720   23.1720  -25.7600 C   0  0  0  0  0  0  0  0  0  0  0  0
  -18.9960   22.9630  -24.4480 C   0  0  0  0  0  0  0  0  0  0  0  0
  -19.3270   23.8650  -23.6900 O   0  0  0  0  0  0  0  0  0  0  0  0
  -19.2030   21.6190  -24.2700 N   0  0  0  0  0  0  0  0  0  0  0  0
  -19.6700   21.2150  -23.4650 H   0  0  0  0  0  0  0  0  0  0  0  0
  -18.6990   20.8850  -25.3230 C   0  0  0  0  0  0  0  0  0  0  0  0
  -18.7390   19.6670  -25.4400 O   0  0  0  0  0  0  0  0  0  0  0  0
  -19.9560   19.9160  -30.6050 C   0  0  0  0  0  0  0  0  0  0  0  0
  -21.1900   20.4730  -31.0950 N   0  0  0  0  0  0  0  0  0  0  0  0
  -21.6280   20.0290  -31.9010 H   0  0  0  0  0  0  0  0  0  0  0  0
  -21.8090   21.5540  -30.4850 C   0  0  0  0  0  0  0  0  0  0  0  0
  -21.3920   22.1410  -29.4920 O   0  0  0  0  0  0  0  0  0  0  0  0
  -23.0710   21.9390  -31.1750 C   0  0  0  0  0  0  0  0  0  0  0  0
  -23.2970   21.5380  -32.4340 C   0  0  0  0  0  0  0  0  0  0  0  0
  -24.4900   21.8750  -33.1580 C   0  0  0  0  0  0  0  0  0  0  0  0
  -24.4170   22.8060  -34.3150 C   0  0  0  0  0  0  0  0  0  0  0  0
  -23.3650   23.3130  -34.6910 O   0  0  0  0  0  0  0  0  0  0  0  0
  -25.6420   23.0380  -34.9120 N   0  0  0  0  0  0  0  0  0  0  0  0
  -25.6830   23.6630  -35.7130 H   0  0  0  0  0  0  0  0  0  0  0  0
  -26.8010   22.4510  -34.4610 C   0  0  0  0  0  0  0  0  0  0  0  0
  -26.8780   21.6400  -33.4570 N   0  0  0  0  0  0  0  0  0  0  0  0
  -25.6890   21.3720  -32.8220 C   0  0  0  0  0  0  0  0  0  0  0  0
  1 25  1  6  0  0  0
  1  7  1  0  0  0  0
  1 12  1  0  0  0  0
  2  3  2  0  0  0  0
  4  3  1  0  0  0  0
  4 10  2  0  0  0  0
  5  4  1  0  0  0  0
  6  5  2  0  0  0  0
  6  7  1  0  0  0  0
  7  8  2  0  0  0  0
  8 10  1  0  0  0  0
  9 11  2  0  0  0  0
  9  5  1  0  0  0  0
 11  2  1  0  0  0  0
 12 13  1  0  0  0  0
 14 12  1  0  0  0  0
 14 16  1  0  0  0  0
 15 14  2  0  0  0  0
 16 17  1  0  0  0  0
 17 18  1  0  0  0  0
 17 23  1  0  0  0  0
 18 19  1  0  0  0  0
 19 21  1  0  0  0  0
 19 20  2  0  0  0  0
 21 22  1  0  0  0  0
 23 21  1  0  0  0  0
 24 23  2  0  0  0  0
 26 25  1  0  0  0  0
 26 28  1  0  0  0  0
 27 26  1  0  0  0  0
 28 29  2  0  0  0  0
 30 28  1  0  0  0  0
 31 30  2  0  0  0  0
 32 39  2  0  0  0  0
 32 31  1  0  0  0  0
 33 32  1  0  0  0  0
 34 33  2  0  0  0  0
 35 37  1  0  0  0  0
 35 33  1  0  0  0  0
 36 35  1  0  0  0  0
 37 38  2  0  0  0  0
 38 39  1  0  0  0  0
M  END
>  <ADSCOR>
   -9.03

$$$$
19
 OpenBabel08042116023D

 39 42  0  0  1  0  0  0  0  0999 V2000
  -21.0360   19.8440  -31.2610 C   0  0  1  0  0  0  0  0  0  0  0  0
  -21.6100   13.6620  -29.2780 C   0  0  0  0  0  0  0  0  0  0  0  0
  -22.3610   14.4000  -30.1940 C   0  0  0  0  0  0  0  0  0  0  0  0
  -22.0440   15.7410  -30.4650 C   0  0  0  0  0  0  0  0  0  0  0  0
  -20.9510   16.3420  -29.7970 C   0  0  0  0  0  0  0  0  0  0  0  0
  -20.6350   17.6830  -30.0680 C   0  0  0  0  0  0  0  0  0  0  0  0
  -21.3860   18.4210  -30.9850 C   0  0  0  0  0  0  0  0  0  0  0  0
  -22.4600   17.8300  -31.6410 C   0  0  0  0  0  0  0  0  0  0  0  0
  -20.2060   15.5850  -28.8790 C   0  0  0  0  0  0  0  0  0  0  0  0
  -22.7890   16.4990  -31.3840 C   0  0  0  0  0  0  0  0  0  0  0  0
  -20.5350   14.2540  -28.6220 C   0  0  0  0  0  0  0  0  0  0  0  0
  -19.9650   20.3290  -30.3650 N   0  0  0  0  0  0  0  0  0  0  0  0
  -19.1150   19.8000  -30.3710 H   0  0  0  0  0  0  0  0  0  0  0  0
  -20.1350   21.4580  -29.6130 C   0  0  0  0  0  0  0  0  0  0  0  0
  -21.1310   22.1740  -29.5830 O   0  0  0  0  0  0  0  0  0  0  0  0
  -18.9190   21.7390  -28.8020 C   0  0  0  0  0  0  0  0  0  0  0  0
  -19.0380   22.1670  -27.5380 C   0  0  0  0  0  0  0  0  0  0  0  0
  -17.9090   22.4560  -26.7000 C   0  0  0  0  0  0  0  0  0  0  0  0
  -18.0650   23.3640  -25.5340 C   0  0  0  0  0  0  0  0  0  0  0  0
  -19.1340   23.8920  -25.2430 O   0  0  0  0  0  0  0  0  0  0  0  0
  -16.8940   23.5510  -24.8210 N   0  0  0  0  0  0  0  0  0  0  0  0
  -16.9110   24.1580  -24.0060 H   0  0  0  0  0  0  0  0  0  0  0  0
  -15.7140   22.9420  -25.1790 C   0  0  0  0  0  0  0  0  0  0  0  0
  -15.5670   22.1520  -26.1900 N   0  0  0  0  0  0  0  0  0  0  0  0
  -16.6980   21.9280  -26.9360 C   0  0  0  0  0  0  0  0  0  0  0  0
  -20.6230   20.1220  -32.7270 C   0  0  0  0  0  0  0  0  0  0  0  0
  -21.2270   21.3280  -33.2300 N   0  0  0  0  0  0  0  0  0  0  0  0
  -20.6180   22.0760  -33.5550 H   0  0  0  0  0  0  0  0  0  0  0  0
  -22.6010   21.5200  -33.2950 C   0  0  0  0  0  0  0  0  0  0  0  0
  -23.4450   20.7010  -32.9380 O   0  0  0  0  0  0  0  0  0  0  0  0
  -22.9850   22.8740  -33.8600 C   0  0  0  0  0  0  0  0  0  0  0  0
  -24.4610   23.0410  -33.7730 C   0  0  0  0  0  0  0  0  0  0  0  0
  -25.0720   23.2450  -32.4260 C   0  0  0  0  0  0  0  0  0  0  0  0
  -24.3720   23.2740  -31.4160 O   0  0  0  0  0  0  0  0  0  0  0  0
  -26.4580   23.3920  -32.4470 N   0  0  0  0  0  0  0  0  0  0  0  0
  -27.1740   23.5970  -31.1980 C   0  0  0  0  0  0  0  0  0  0  0  0
  -27.1620   23.3460  -33.6350 C   0  0  0  0  0  0  0  0  0  0  0  0
  -26.6420   23.1700  -34.8060 N   0  0  0  0  0  0  0  0  0  0  0  0
  -25.2810   23.0210  -34.8330 C   0  0  0  0  0  0  0  0  0  0  0  0
  1 26  1  6  0  0  0
  1  7  1  0  0  0  0
  1 12  1  0  0  0  0
  2 11  2  0  0  0  0
  3  2  1  0  0  0  0
  4  3  2  0  0  0  0
  4  5  1  0  0  0  0
  5  9  2  0  0  0  0
  6  5  1  0  0  0  0
  7  6  2  0  0  0  0
  8 10  2  0  0  0  0
  8  7  1  0  0  0  0
  9 11  1  0  0  0  0
 10  4  1  0  0  0  0
 12 14  1  0  0  0  0
 13 12  1  0  0  0  0
 14 15  2  0  0  0  0
 14 16  1  0  0  0  0
 16 17  2  0  0  0  0
 17 18  1  0  0  0  0
 18 19  1  0  0  0  0
 19 20  2  0  0  0  0
 19 21  1  0  0  0  0
 21 22  1  0  0  0  0
 23 21  1  0  0  0  0
 24 23  2  0  0  0  0
 25 18  2  0  0  0  0
 25 24  1  0  0  0  0
 27 26  1  0  0  0  0
 28 27  1  0  0  0  0
 29 27  1  0  0  0  0
 29 30  2  0  0  0  0
 31 32  1  0  0  0  0
 31 29  1  0  0  0  0
 32 33  1  0  0  0  0
 33 34  2  0  0  0  0
 35 33  1  0  0  0  0
 35 36  1  0  0  0  0
 37 35  1  0  0  0  0
 38 37  2  0  0  0  0
 39 38  1  0  0  0  0
 39 32  2  0  0  0  0
M  END
>  <ADSCOR>
   -9.09

$$$$
2
 OpenBabel08042116023D

 41 44  0  0  1  0  0  0  0  0999 V2000
  -18.2130   21.3870  -27.6240 C   0  0  1  0  0  0  0  0  0  0  0  0
  -19.4990   25.1990  -22.4970 C   0  0  0  0  0  0  0  0  0  0  0  0
  -20.2030   24.1200  -23.0290 C   0  0  0  0  0  0  0  0  0  0  0  0
  -19.7240   23.4400  -24.1610 C   0  0  0  0  0  0  0  0  0  0  0  0
  -18.5120   23.8600  -24.7590 C   0  0  0  0  0  0  0  0  0  0  0  0
  -18.0320   23.1790  -25.8910 C   0  0  0  0  0  0  0  0  0  0  0  0
  -18.7370   22.0990  -26.4230 C   0  0  0  0  0  0  0  0  0  0  0  0
  -19.9290   21.6860  -25.8340 C   0  0  0  0  0  0  0  0  0  0  0  0
  -17.8160   24.9490  -24.2090 C   0  0  0  0  0  0  0  0  0  0  0  0
  -20.4200   22.3500  -24.7100 C   0  0  0  0  0  0  0  0  0  0  0  0
  -18.3080   25.6130  -23.0860 C   0  0  0  0  0  0  0  0  0  0  0  0
  -18.7540   20.0160  -27.7280 N   0  0  0  0  0  0  0  0  0  0  0  0
  -19.0670   19.7360  -28.6370 H   0  0  0  0  0  0  0  0  0  0  0  0
  -18.7770   19.1850  -26.6430 C   0  0  0  0  0  0  0  0  0  0  0  0
  -18.3790   19.4460  -25.5120 O   0  0  0  0  0  0  0  0  0  0  0  0
  -19.3620   17.8640  -27.0040 C   0  0  0  0  0  0  0  0  0  0  0  0
  -19.4350   17.4910  -28.2870 C   0  0  0  0  0  0  0  0  0  0  0  0
  -19.9880   16.2330  -28.7070 C   0  0  0  0  0  0  0  0  0  0  0  0
  -21.1340   16.2040  -29.6530 C   0  0  0  0  0  0  0  0  0  0  0  0
  -21.6440   17.2240  -30.1060 O   0  0  0  0  0  0  0  0  0  0  0  0
  -21.5580   14.9260  -29.9660 N   0  0  0  0  0  0  0  0  0  0  0  0
  -22.3380   14.8150  -30.6070 H   0  0  0  0  0  0  0  0  0  0  0  0
  -20.9600   13.8060  -29.4370 C   0  0  0  0  0  0  0  0  0  0  0  0
  -19.9650   13.8180  -28.6130 N   0  0  0  0  0  0  0  0  0  0  0  0
  -19.4990   15.0630  -28.2670 C   0  0  0  0  0  0  0  0  0  0  0  0
  -18.4680   22.1270  -28.9600 C   0  0  0  0  0  0  0  0  0  0  0  0
  -19.5030   21.4890  -29.7310 N   0  0  0  0  0  0  0  0  0  0  0  0
  -20.3250   21.1490  -29.2370 H   0  0  0  0  0  0  0  0  0  0  0  0
  -19.4290   21.3660  -31.1110 C   0  0  0  0  0  0  0  0  0  0  0  0
  -18.5060   21.7710  -31.8100 O   0  0  0  0  0  0  0  0  0  0  0  0
  -20.6210   20.6750  -31.6760 C   0  0  0  0  0  0  0  0  0  0  0  0
  -21.8380   20.9140  -31.1680 C   0  0  0  0  0  0  0  0  0  0  0  0
  -23.0290   20.2840  -31.6630 C   0  0  0  0  0  0  0  0  0  0  0  0
  -23.6270   20.7300  -32.9460 C   0  0  0  0  0  0  0  0  0  0  0  0
  -23.1430   21.6320  -33.6220 O   0  0  0  0  0  0  0  0  0  0  0  0
  -24.7690   20.0330  -33.2970 N   0  0  0  0  0  0  0  0  0  0  0  0
  -25.2320   20.2860  -34.1650 H   0  0  0  0  0  0  0  0  0  0  0  0
  -25.2900   19.0220  -32.5140 C   0  0  0  0  0  0  0  0  0  0  0  0
  -24.7700   18.6300  -31.3920 N   0  0  0  0  0  0  0  0  0  0  0  0
  -26.5360   18.3700  -33.0410 C   0  0  0  0  0  0  0  0  0  0  0  0
  -23.6320   19.2880  -30.9960 C   0  0  0  0  0  0  0  0  0  0  0  0
  1 26  1  6  0  0  0
  1  7  1  0  0  0  0
  3  2  1  0  0  0  0
  4  3  2  0  0  0  0
  5  9  2  0  0  0  0
  5  4  1  0  0  0  0
  6  5  1  0  0  0  0
  7  6  2  0  0  0  0
  7  8  1  0  0  0  0
  8 10  2  0  0  0  0
  9 11  1  0  0  0  0
 10  4  1  0  0  0  0
 11  2  2  0  0  0  0
 12  1  1  0  0  0  0
 12 14  1  0  0  0  0
 13 12  1  0  0  0  0
 14 15  2  0  0  0  0
 16 14  1  0  0  0  0
 17 16  2  0  0  0  0
 18 17  1  0  0  0  0
 18 25  2  0  0  0  0
 19 18  1  0  0  0  0
 20 19  2  0  0  0  0
 21 19  1  0  0  0  0
 21 23  1  0  0  0  0
 22 21  1  0  0  0  0
 23 24  2  0  0  0  0
 24 25  1  0  0  0  0
 27 28  1  0  0  0  0
 27 26  1  0  0  0  0
 29 27  1  0  0  0  0
 30 29  2  0  0  0  0
 31 32  2  0  0  0  0
 31 29  1  0  0  0  0
 33 32  1  0  0  0  0
 33 41  2  0  0  0  0
 34 33  1  0  0  0  0
 35 34  2  0  0  0  0
 36 34  1  0  0  0  0
 36 38  1  0  0  0  0
 37 36  1  0  0  0  0
 38 39  2  0  0  0  0
 39 41  1  0  0  0  0
 40 38  1  0  0  0  0
M  END
>  <ADSCOR>
   -7.78

$$$$
20
 OpenBabel08042116023D

 35 38  0  0  1  0  0  0  0  0999 V2000
  -18.2780   20.7630  -27.4450 C   0  0  0  0  0  0  0  0  0  0  0  0
  -18.3050   20.6620  -26.0530 C   0  0  0  0  0  0  0  0  0  0  0  0
  -19.2890   19.8800  -25.4710 C   0  0  0  0  0  0  0  0  0  0  0  0
  -19.4940   19.5950  -24.0140 C   0  0  0  0  0  0  0  0  0  0  0  0
  -20.9390   19.0620  -24.0220 C   0  0  1  0  0  0  0  0  0  0  0  0
  -21.1560   18.3860  -25.3980 C   0  0  1  0  0  0  0  0  0  0  0  0
  -20.2250   19.1920  -26.2550 C   0  0  0  0  0  0  0  0  0  0  0  0
  -20.1990   19.2830  -27.6370 C   0  0  0  0  0  0  0  0  0  0  0  0
  -19.2180   20.0790  -28.2320 C   0  0  0  0  0  0  0  0  0  0  0  0
  -21.2200   18.2200  -22.8930 N   0  0  0  0  0  0  0  0  0  0  0  0
  -21.9090   17.4760  -23.0050 H   0  0  0  0  0  0  0  0  0  0  0  0
  -20.6020   18.3620  -21.6550 C   0  0  0  0  0  0  0  0  0  0  0  0
  -19.7570   19.2120  -21.3840 O   0  0  0  0  0  0  0  0  0  0  0  0
  -21.0970   17.3400  -20.6630 C   0  0  0  0  0  0  0  0  0  0  0  0
  -20.7930   15.9880  -21.1560 N   0  0  0  0  0  0  0  0  0  0  0  0
  -19.5090   15.7240  -21.5720 N   0  0  0  0  0  0  0  0  0  0  0  0
  -18.8360   16.4830  -21.5170 H   0  0  0  0  0  0  0  0  0  0  0  0
  -19.1350   14.4910  -22.0430 C   0  0  0  0  0  0  0  0  0  0  0  0
  -17.9970   14.2220  -22.4210 O   0  0  0  0  0  0  0  0  0  0  0  0
  -20.1880   13.4600  -22.0810 C   0  0  0  0  0  0  0  0  0  0  0  0
  -21.4280   13.7300  -21.6760 C   0  0  0  0  0  0  0  0  0  0  0  0
  -21.8020   15.0690  -21.1720 C   0  0  0  0  0  0  0  0  0  0  0  0
  -22.9610   15.2660  -20.8090 O   0  0  0  0  0  0  0  0  0  0  0  0
  -20.8110   16.9890  -25.4200 N   0  0  0  0  0  0  0  0  0  0  0  0
  -19.9410   16.7080  -25.8680 H   0  0  0  0  0  0  0  0  0  0  0  0
  -21.6160   16.0060  -24.8540 C   0  0  0  0  0  0  0  0  0  0  0  0
  -22.6850   16.2160  -24.2870 O   0  0  0  0  0  0  0  0  0  0  0  0
  -21.0150   14.6240  -25.0250 C   0  0  0  0  0  0  0  0  0  0  0  0
  -20.7730   14.2530  -26.4640 C   0  0  0  0  0  0  0  0  0  0  0  0
  -21.8240   13.9240  -27.3050 C   0  0  0  0  0  0  0  0  0  0  0  0
  -21.6770   13.5840  -28.6050 N   0  0  0  0  0  0  0  0  0  0  0  0
  -20.4120   13.5740  -29.0820 C   0  0  0  0  0  0  0  0  0  0  0  0
  -19.2940   13.8860  -28.3250 C   0  0  0  0  0  0  0  0  0  0  0  0
  -17.9310   13.8540  -28.9200 C   0  0  0  0  0  0  0  0  0  0  0  0
  -19.4870   14.2310  -26.9920 C   0  0  0  0  0  0  0  0  0  0  0  0
  1  2  2  0  0  0  0
  2  3  1  0  0  0  0
  3  4  1  0  0  0  0
  5  4  1  0  0  0  0
  5 10  1  1  0  0  0
  6 24  1  1  0  0  0
  6  5  1  0  0  0  0
  7  3  2  0  0  0  0
  7  6  1  0  0  0  0
  8  7  1  0  0  0  0
  9  8  2  0  0  0  0
  9  1  1  0  0  0  0
 10 12  1  0  0  0  0
 11 10  1  0  0  0  0
 12 13  2  0  0  0  0
 12 14  1  0  0  0  0
 15 14  1  0  0  0  0
 16 17  1  0  0  0  0
 16 15  1  0  0  0  0
 18 16  1  0  0  0  0
 19 18  2  0  0  0  0
 20 18  1  0  0  0  0
 20 21  2  0  0  0  0
 21 22  1  0  0  0  0
 22 15  1  0  0  0  0
 22 23  2  0  0  0  0
 24 26  1  0  0  0  0
 25 24  1  0  0  0  0
 26 27  2  0  0  0  0
 28 26  1  0  0  0  0
 29 28  1  0  0  0  0
 30 29  2  0  0  0  0
 31 30  1  0  0  0  0
 32 31  2  0  0  0  0
 32 33  1  0  0  0  0
 33 35  2  0  0  0  0
 34 33  1  0  0  0  0
 35 29  1  0  0  0  0
M  END
>  <ADSCOR>
   -7.66

$$$$
21
 OpenBabel08042116023D

 35 37  0  0  1  0  0  0  0  0999 V2000
  -21.4680   16.9450  -28.3050 C   0  0  1  0  0  0  0  0  0  0  0  0
  -21.9030   13.3860  -30.6940 C   0  0  0  0  0  0  0  0  0  0  0  0
  -21.0450   13.3870  -29.5950 C   0  0  0  0  0  0  0  0  0  0  0  0
  -20.9040   14.5400  -28.8220 C   0  0  0  0  0  0  0  0  0  0  0  0
  -21.6220   15.6900  -29.1480 C   0  0  0  0  0  0  0  0  0  0  0  0
  -22.4800   15.6890  -30.2470 C   0  0  0  0  0  0  0  0  0  0  0  0
  -22.6210   14.5360  -31.0210 C   0  0  0  0  0  0  0  0  0  0  0  0
  -21.3690   16.6110  -26.9040 N   0  0  0  0  0  0  0  0  0  0  0  0
  -20.4650   16.7230  -26.4550 H   0  0  0  0  0  0  0  0  0  0  0  0
  -22.4650   16.1920  -26.1670 C   0  0  0  0  0  0  0  0  0  0  0  0
  -23.6050   16.0590  -26.6010 O   0  0  0  0  0  0  0  0  0  0  0  0
  -22.1080   15.9160  -24.7490 C   0  0  0  0  0  0  0  0  0  0  0  0
  -21.7070   14.6920  -24.3840 C   0  0  0  0  0  0  0  0  0  0  0  0
  -21.3490   14.3560  -23.0340 C   0  0  0  0  0  0  0  0  0  0  0  0
  -22.1450   14.8930  -21.9000 C   0  0  0  0  0  0  0  0  0  0  0  0
  -23.1170   15.6250  -22.0610 O   0  0  0  0  0  0  0  0  0  0  0  0
  -21.6830   14.4870  -20.6610 N   0  0  0  0  0  0  0  0  0  0  0  0
  -22.1710   14.8080  -19.8310 H   0  0  0  0  0  0  0  0  0  0  0  0
  -20.5890   13.6650  -20.5210 C   0  0  0  0  0  0  0  0  0  0  0  0
  -19.8890   13.1920  -21.4990 N   0  0  0  0  0  0  0  0  0  0  0  0
  -20.3020   13.5630  -22.7560 C   0  0  0  0  0  0  0  0  0  0  0  0
  -20.2700   17.8130  -28.7240 C   0  0  0  0  0  0  0  0  0  0  0  0
  -19.9900   18.8480  -27.7640 N   0  0  0  0  0  0  0  0  0  0  0  0
  -19.3850   18.6250  -26.9770 H   0  0  0  0  0  0  0  0  0  0  0  0
  -20.5020   20.1370  -27.8570 C   0  0  0  0  0  0  0  0  0  0  0  0
  -21.2410   20.5410  -28.7510 O   0  0  0  0  0  0  0  0  0  0  0  0
  -20.0410   21.0010  -26.7090 C   0  0  0  0  0  0  0  0  0  0  0  0
  -18.7210   21.5690  -27.0190 N   0  0  0  0  0  0  0  0  0  0  0  0
  -17.6560   21.6320  -26.0620 C   0  0  0  0  0  0  0  0  0  0  0  0
  -16.5840   22.2880  -26.9060 C   0  0  0  0  0  0  0  0  0  0  0  0
  -15.4590   22.5550  -26.5090 O   0  0  0  0  0  0  0  0  0  0  0  0
  -17.0930   22.5190  -28.1600 N   0  0  0  0  0  0  0  0  0  0  0  0
  -16.5730   22.9510  -28.9160 H   0  0  0  0  0  0  0  0  0  0  0  0
  -18.4000   22.0890  -28.2620 C   0  0  0  0  0  0  0  0  0  0  0  0
  -19.1090   22.1640  -29.2570 O   0  0  0  0  0  0  0  0  0  0  0  0
  1 22  1  6  0  0  0
  1  8  1  0  0  0  0
  2  3  1  0  0  0  0
  3  4  2  0  0  0  0
  5  4  1  0  0  0  0
  5  1  1  0  0  0  0
  6  5  2  0  0  0  0
  7  2  2  0  0  0  0
  7  6  1  0  0  0  0
  8  9  1  0  0  0  0
  8 10  1  0  0  0  0
 10 12  1  0  0  0  0
 11 10  2  0  0  0  0
 12 13  2  0  0  0  0
 13 14  1  0  0  0  0
 14 21  2  0  0  0  0
 14 15  1  0  0  0  0
 15 17  1  0  0  0  0
 16 15  2  0  0  0  0
 17 19  1  0  0  0  0
 17 18  1  0  0  0  0
 20 19  2  0  0  0  0
 21 20  1  0  0  0  0
 22 23  1  0  0  0  0
 23 24  1  0  0  0  0
 25 23  1  0  0  0  0
 25 27  1  0  0  0  0
 26 25  2  0  0  0  0
 28 27  1  0  0  0  0
 28 29  1  0  0  0  0
 30 31  2  0  0  0  0
 30 29  1  0  0  0  0
 32 30  1  0  0  0  0
 33 32  1  0  0  0  0
 34 32  1  0  0  0  0
 34 28  1  0  0  0  0
 35 34  2  0  0  0  0
M  END
>  <ADSCOR>
   -8.19

$$$$
22
 OpenBabel08042116023D

 37 40  0  0  1  0  0  0  0  0999 V2000
  -20.0140   15.8110  -24.0270 C   0  0  1  0  0  0  0  0  0  0  0  0
  -19.9020   19.4850  -29.4090 C   0  0  0  0  0  0  0  0  0  0  0  0
  -20.0860   19.8330  -28.0720 C   0  0  0  0  0  0  0  0  0  0  0  0
  -20.0710   18.8520  -27.0670 C   0  0  0  0  0  0  0  0  0  0  0  0
  -19.8650   17.4980  -27.4250 C   0  0  0  0  0  0  0  0  0  0  0  0
  -19.8500   16.5160  -26.4200 C   0  0  0  0  0  0  0  0  0  0  0  0
  -20.0340   16.8660  -25.0820 C   0  0  0  0  0  0  0  0  0  0  0  0
  -20.2360   18.1970  -24.7300 C   0  0  0  0  0  0  0  0  0  0  0  0
  -19.6810   17.1660  -28.7770 C   0  0  0  0  0  0  0  0  0  0  0  0
  -20.2550   19.1850  -25.7140 C   0  0  0  0  0  0  0  0  0  0  0  0
  -19.7000   18.1540  -29.7610 C   0  0  0  0  0  0  0  0  0  0  0  0
  -20.2240   16.3800  -22.6790 N   0  0  0  0  0  0  0  0  0  0  0  0
  -19.4300   16.6280  -22.1240 H   0  0  0  0  0  0  0  0  0  0  0  0
  -21.4820   16.5750  -22.1740 C   0  0  0  0  0  0  0  0  0  0  0  0
  -22.5400   16.3170  -22.7440 O   0  0  0  0  0  0  0  0  0  0  0  0
  -21.4050   17.1630  -20.7790 C   0  0  0  0  0  0  0  0  0  0  0  0
  -21.1090   18.6390  -20.7680 C   0  0  0  0  0  0  0  0  0  0  0  0
  -21.9020   19.5320  -21.4710 C   0  0  0  0  0  0  0  0  0  0  0  0
  -21.6930   20.8670  -21.5040 N   0  0  0  0  0  0  0  0  0  0  0  0
  -20.6350   21.3260  -20.7980 C   0  0  0  0  0  0  0  0  0  0  0  0
  -19.7820   20.5170  -20.0640 C   0  0  0  0  0  0  0  0  0  0  0  0
  -20.0310   19.1490  -20.0550 C   0  0  0  0  0  0  0  0  0  0  0  0
  -18.7390   21.0440  -19.3760 O   0  0  0  0  0  0  0  0  0  0  0  0
  -18.3310   21.7700  -19.8790 H   0  0  0  0  0  0  0  0  0  0  0  0
  -21.0370   14.6710  -24.2530 C   0  0  0  0  0  0  0  0  0  0  0  0
  -20.9430   14.1290  -25.5840 N   0  0  0  0  0  0  0  0  0  0  0  0
  -20.0950   13.6310  -25.8470 H   0  0  0  0  0  0  0  0  0  0  0  0
  -21.9540   14.2540  -26.5210 C   0  0  0  0  0  0  0  0  0  0  0  0
  -23.0300   14.8190  -26.3630 O   0  0  0  0  0  0  0  0  0  0  0  0
  -21.6210   13.6190  -27.8090 C   0  0  0  0  0  0  0  0  0  0  0  0
  -22.6000   12.9710  -28.4560 C   0  0  0  0  0  0  0  0  0  0  0  0
  -22.2990   12.3140  -29.7660 C   0  0  0  0  0  0  0  0  0  0  0  0
  -23.1810   11.7150  -30.3750 O   0  0  0  0  0  0  0  0  0  0  0  0
  -20.9920   12.4380  -30.2110 N   0  0  0  0  0  0  0  0  0  0  0  0
  -20.7320   12.0120  -31.0960 H   0  0  0  0  0  0  0  0  0  0  0  0
  -20.0160   13.1120  -29.5190 C   0  0  0  0  0  0  0  0  0  0  0  0
  -20.2850   13.6990  -28.3480 C   0  0  0  0  0  0  0  0  0  0  0  0
  1 25  1  6  0  0  0
  1 12  1  0  0  0  0
  2  3  1  0  0  0  0
  3  4  2  0  0  0  0
  4 10  1  0  0  0  0
  5  4  1  0  0  0  0
  5  6  1  0  0  0  0
  6  7  2  0  0  0  0
  7  8  1  0  0  0  0
  7  1  1  0  0  0  0
  9  5  2  0  0  0  0
 10  8  2  0  0  0  0
 11  2  2  0  0  0  0
 11  9  1  0  0  0  0
 12 14  1  0  0  0  0
 12 13  1  0  0  0  0
 14 16  1  0  0  0  0
 15 14  2  0  0  0  0
 16 17  1  0  0  0  0
 17 22  2  0  0  0  0
 18 17  1  0  0  0  0
 19 18  2  0  0  0  0
 19 20  1  0  0  0  0
 20 21  2  0  0  0  0
 21 22  1  0  0  0  0
 21 23  1  0  0  0  0
 24 23  1  0  0  0  0
 26 25  1  0  0  0  0
 27 26  1  0  0  0  0
 28 29  2  0  0  0  0
 28 26  1  0  0  0  0
 30 28  1  0  0  0  0
 31 30  2  0  0  0  0
 32 31  1  0  0  0  0
 33 32  2  0  0  0  0
 34 32  1  0  0  0  0
 34 36  1  0  0  0  0
 35 34  1  0  0  0  0
 36 37  2  0  0  0  0
 37 30  1  0  0  0  0
M  END
>  <ADSCOR>
   -8.33

$$$$
23
 OpenBabel08042116023D

 36 39  0  0  1  0  0  0  0  0999 V2000
  -20.2580   12.8980  -29.8020 C   0  0  0  0  0  0  0  0  0  0  0  0
  -21.5170   13.3300  -29.3820 C   0  0  0  0  0  0  0  0  0  0  0  0
  -21.5840   14.3550  -28.4520 C   0  0  0  0  0  0  0  0  0  0  0  0
  -22.8130   14.9450  -27.8320 C   0  0  0  0  0  0  0  0  0  0  0  0
  -22.2660   16.2550  -27.2320 C   0  0  1  0  0  0  0  0  0  0  0  0
  -20.7720   15.9860  -26.9090 C   0  0  1  0  0  0  0  0  0  0  0  0
  -20.4240   14.9430  -27.9330 C   0  0  0  0  0  0  0  0  0  0  0  0
  -19.1700   14.5060  -28.3340 C   0  0  0  0  0  0  0  0  0  0  0  0
  -19.0920   13.4810  -29.2810 C   0  0  0  0  0  0  0  0  0  0  0  0
  -22.4480   17.3510  -28.1620 N   0  0  0  0  0  0  0  0  0  0  0  0
  -21.9650   17.3090  -29.0590 H   0  0  0  0  0  0  0  0  0  0  0  0
  -23.2490   18.4590  -27.8980 C   0  0  0  0  0  0  0  0  0  0  0  0
  -23.8850   18.6360  -26.8620 O   0  0  0  0  0  0  0  0  0  0  0  0
  -23.2450   19.4350  -29.0460 C   0  0  0  0  0  0  0  0  0  0  0  0
  -23.6730   18.7520  -30.2760 N   0  0  0  0  0  0  0  0  0  0  0  0
  -22.7210   18.1990  -31.1350 C   0  0  0  0  0  0  0  0  0  0  0  0
  -21.5030   18.2340  -30.9510 O   0  0  0  0  0  0  0  0  0  0  0  0
  -23.2650   17.5200  -32.3700 C   0  0  0  0  0  0  0  0  0  0  0  0
  -24.5950   17.4940  -32.5510 C   0  0  0  0  0  0  0  0  0  0  0  0
  -25.5050   18.0900  -31.6130 C   0  0  0  0  0  0  0  0  0  0  0  0
  -25.0270   18.6920  -30.5200 C   0  0  0  0  0  0  0  0  0  0  0  0
  -22.3480   16.9750  -33.2190 N   0  0  0  0  0  0  0  0  0  0  0  0
  -22.6660   16.5710  -34.0730 H   0  0  0  0  0  0  0  0  0  0  0  0
  -21.3840   16.9960  -32.9590 H   0  0  0  0  0  0  0  0  0  0  0  0
  -19.9480   17.1620  -26.9580 N   0  0  0  0  0  0  0  0  0  0  0  0
  -19.6850   17.6050  -26.0790 H   0  0  0  0  0  0  0  0  0  0  0  0
  -19.4930   17.7240  -28.1430 C   0  0  0  0  0  0  0  0  0  0  0  0
  -19.7290   17.3000  -29.2690 O   0  0  0  0  0  0  0  0  0  0  0  0
  -18.6590   18.9370  -27.9020 C   0  0  0  0  0  0  0  0  0  0  0  0
  -18.8700   19.6880  -26.8110 C   0  0  0  0  0  0  0  0  0  0  0  0
  -18.1030   20.8990  -26.4690 C   0  0  0  0  0  0  0  0  0  0  0  0
  -16.8610   21.1420  -27.0330 C   0  0  0  0  0  0  0  0  0  0  0  0
  -16.1070   22.2300  -26.7620 N   0  0  0  0  0  0  0  0  0  0  0  0
  -16.6260   23.1170  -25.8830 C   0  0  0  0  0  0  0  0  0  0  0  0
  -17.8570   22.9660  -25.2650 C   0  0  0  0  0  0  0  0  0  0  0  0
  -18.6030   21.8340  -25.5700 C   0  0  0  0  0  0  0  0  0  0  0  0
  1  2  2  0  0  0  0
  1  9  1  0  0  0  0
  2  3  1  0  0  0  0
  3  7  2  0  0  0  0
  3  4  1  0  0  0  0
  4  5  1  0  0  0  0
  5 10  1  6  0  0  0
  5  6  1  0  0  0  0
  6 25  1  6  0  0  0
  7  6  1  0  0  0  0
  8  7  1  0  0  0  0
  9  8  2  0  0  0  0
 10 12  1  0  0  0  0
 11 10  1  0  0  0  0
 12 13  2  0  0  0  0
 14 12  1  0  0  0  0
 15 14  1  0  0  0  0
 16 17  2  0  0  0  0
 16 15  1  0  0  0  0
 18 16  1  0  0  0  0
 19 18  2  0  0  0  0
 19 20  1  0  0  0  0
 20 21  2  0  0  0  0
 21 15  1  0  0  0  0
 22 24  1  0  0  0  0
 22 18  1  0  0  0  0
 23 22  1  0  0  0  0
 25 26  1  0  0  0  0
 27 29  1  0  0  0  0
 27 25  1  0  0  0  0
 28 27  2  0  0  0  0
 29 30  2  0  0  0  0
 30 31  1  0  0  0  0
 31 36  2  0  0  0  0
 32 33  2  0  0  0  0
 32 31  1  0  0  0  0
 33 34  1  0  0  0  0
 34 35  2  0  0  0  0
 36 35  1  0  0  0  0
M  END
>  <ADSCOR>
   -8.13

$$$$
24
 OpenBabel08042116023D

 39 42  0  0  1  0  0  0  0  0999 V2000
  -22.4570   13.2260  -30.4550 C   0  0  0  0  0  0  0  0  0  0  0  0
  -21.6790   14.3840  -30.4300 C   0  0  0  0  0  0  0  0  0  0  0  0
  -21.3890   14.9550  -29.2020 C   0  0  0  0  0  0  0  0  0  0  0  0
  -20.6090   16.2060  -28.9380 C   0  0  0  0  0  0  0  0  0  0  0  0
  -20.2770   16.0280  -27.4460 C   0  0  2  0  0  0  0  0  0  0  0  0
  -21.4570   15.2380  -26.8290 C   0  0  1  0  0  0  0  0  0  0  0  0
  -21.8700   14.3980  -28.0080 C   0  0  0  0  0  0  0  0  0  0  0  0
  -22.6550   13.2540  -28.0290 C   0  0  0  0  0  0  0  0  0  0  0  0
  -22.9420   12.6650  -29.2630 C   0  0  0  0  0  0  0  0  0  0  0  0
  -20.0370   17.2780  -26.7800 N   0  0  0  0  0  0  0  0  0  0  0  0
  -20.5780   17.4860  -25.9430 H   0  0  0  0  0  0  0  0  0  0  0  0
  -19.0750   18.1790  -27.2170 C   0  0  0  0  0  0  0  0  0  0  0  0
  -18.3430   18.0180  -28.1880 O   0  0  0  0  0  0  0  0  0  0  0  0
  -19.0150   19.3950  -26.3590 C   0  0  0  0  0  0  0  0  0  0  0  0
  -18.5200   20.5390  -26.8500 C   0  0  0  0  0  0  0  0  0  0  0  0
  -18.4330   21.7480  -26.0790 C   0  0  0  0  0  0  0  0  0  0  0  0
  -17.1190   22.4090  -25.8810 C   0  0  0  0  0  0  0  0  0  0  0  0
  -16.0770   21.9640  -26.3540 O   0  0  0  0  0  0  0  0  0  0  0  0
  -17.1880   23.5600  -25.1200 N   0  0  0  0  0  0  0  0  0  0  0  0
  -16.3240   24.0650  -24.9440 H   0  0  0  0  0  0  0  0  0  0  0  0
  -18.3750   24.0350  -24.6010 C   0  0  0  0  0  0  0  0  0  0  0  0
  -19.5240   23.4600  -24.7700 N   0  0  0  0  0  0  0  0  0  0  0  0
  -18.2710   25.2980  -23.7960 C   0  0  0  0  0  0  0  0  0  0  0  0
  -19.5150   22.3110  -25.5210 C   0  0  0  0  0  0  0  0  0  0  0  0
  -21.0490   14.4500  -25.5910 C   0  0  0  0  0  0  0  0  0  0  0  0
  -20.6120   15.3420  -24.5690 N   0  0  0  0  0  0  0  0  0  0  0  0
  -19.7310   15.1430  -24.0870 H   0  0  0  0  0  0  0  0  0  0  0  0
  -21.3150   16.4970  -24.2240 C   0  0  0  0  0  0  0  0  0  0  0  0
  -22.3600   16.8650  -24.7500 O   0  0  0  0  0  0  0  0  0  0  0  0
  -20.6520   17.2640  -23.1320 C   0  0  0  0  0  0  0  0  0  0  0  0
  -21.3560   18.1440  -22.4090 C   0  0  0  0  0  0  0  0  0  0  0  0
  -20.7810   18.9160  -21.3430 C   0  0  0  0  0  0  0  0  0  0  0  0
  -19.6150   19.7980  -21.6100 C   0  0  0  0  0  0  0  0  0  0  0  0
  -19.1060   19.9040  -22.7220 O   0  0  0  0  0  0  0  0  0  0  0  0
  -19.1690   20.4760  -20.4910 N   0  0  0  0  0  0  0  0  0  0  0  0
  -18.3740   21.1020  -20.5860 H   0  0  0  0  0  0  0  0  0  0  0  0
  -19.7650   20.3300  -19.2600 C   0  0  0  0  0  0  0  0  0  0  0  0
  -20.7780   19.5670  -19.0150 N   0  0  0  0  0  0  0  0  0  0  0  0
  -21.2660   18.8670  -20.0930 C   0  0  0  0  0  0  0  0  0  0  0  0
  1  2  2  0  0  0  0
  1  9  1  0  0  0  0
  2  3  1  0  0  0  0
  3  4  1  0  0  0  0
  3  7  2  0  0  0  0
  4  5  1  0  0  0  0
  5  6  1  0  0  0  0
  5 10  1  1  0  0  0
  6 25  1  1  0  0  0
  7  6  1  0  0  0  0
  8  7  1  0  0  0  0
  9  8  2  0  0  0  0
 10 11  1  0  0  0  0
 12 10  1  0  0  0  0
 12 14  1  0  0  0  0
 13 12  2  0  0  0  0
 15 14  2  0  0  0  0
 15 16  1  0  0  0  0
 16 17  1  0  0  0  0
 16 24  2  0  0  0  0
 17 19  1  0  0  0  0
 18 17  2  0  0  0  0
 19 20  1  0  0  0  0
 19 21  1  0  0  0  0
 21 23  1  0  0  0  0
 22 21  2  0  0  0  0
 24 22  1  0  0  0  0
 25 26  1  0  0  0  0
 26 28  1  0  0  0  0
 26 27  1  0  0  0  0
 28 30  1  0  0  0  0
 29 28  2  0  0  0  0
 30 31  2  0  0  0  0
 31 32  1  0  0  0  0
 32 39  2  0  0  0  0
 33 32  1  0  0  0  0
 33 35  1  0  0  0  0
 34 33  2  0  0  0  0
 35 37  1  0  0  0  0
 36 35  1  0  0  0  0
 37 38  2  0  0  0  0
 39 38  1  0  0  0  0
M  END
>  <ADSCOR>
   -9.24

$$$$
25
 OpenBabel08042116023D

 38 40  0  0  1  0  0  0  0  0999 V2000
  -21.6930   19.6410  -29.7210 C   0  0  1  0  0  0  0  0  0  0  0  0
  -19.4700   20.9080  -33.1890 C   0  0  0  0  0  0  0  0  0  0  0  0
  -20.5080   19.9860  -33.3240 C   0  0  0  0  0  0  0  0  0  0  0  0
  -21.2270   19.5760  -32.2010 C   0  0  0  0  0  0  0  0  0  0  0  0
  -20.9090   20.0890  -30.9440 C   0  0  0  0  0  0  0  0  0  0  0  0
  -19.8710   21.0110  -30.8090 C   0  0  0  0  0  0  0  0  0  0  0  0
  -19.1510   21.4200  -31.9310 C   0  0  0  0  0  0  0  0  0  0  0  0
  -22.0340   18.2410  -29.8170 N   0  0  0  0  0  0  0  0  0  0  0  0
  -21.2980   17.5630  -29.6400 H   0  0  0  0  0  0  0  0  0  0  0  0
  -23.3220   17.8150  -30.0960 C   0  0  0  0  0  0  0  0  0  0  0  0
  -24.2880   18.5460  -30.2880 O   0  0  0  0  0  0  0  0  0  0  0  0
  -23.4190   16.3290  -30.1350 C   0  0  0  0  0  0  0  0  0  0  0  0
  -22.4600   15.5800  -29.5760 C   0  0  0  0  0  0  0  0  0  0  0  0
  -22.4900   14.1430  -29.5770 C   0  0  0  0  0  0  0  0  0  0  0  0
  -22.9000   13.4080  -28.3520 C   0  0  0  0  0  0  0  0  0  0  0  0
  -23.2240   13.9800  -27.3150 O   0  0  0  0  0  0  0  0  0  0  0  0
  -22.8790   12.0340  -28.5020 N   0  0  0  0  0  0  0  0  0  0  0  0
  -23.1460   11.4550  -27.7110 H   0  0  0  0  0  0  0  0  0  0  0  0
  -22.5100   11.4310  -29.6820 C   0  0  0  0  0  0  0  0  0  0  0  0
  -22.1510   12.0590  -30.7530 N   0  0  0  0  0  0  0  0  0  0  0  0
  -22.1530   13.4300  -30.6620 C   0  0  0  0  0  0  0  0  0  0  0  0
  -20.9590   19.9130  -28.3990 C   0  0  0  0  0  0  0  0  0  0  0  0
  -20.7900   18.7160  -27.6180 N   0  0  0  0  0  0  0  0  0  0  0  0
  -21.3720   18.6010  -26.7900 H   0  0  0  0  0  0  0  0  0  0  0  0
  -19.9020   17.7140  -27.9800 C   0  0  0  0  0  0  0  0  0  0  0  0
  -19.1810   17.7300  -28.9720 O   0  0  0  0  0  0  0  0  0  0  0  0
  -19.9150   16.5800  -27.0150 C   0  0  0  0  0  0  0  0  0  0  0  0
  -20.4030   16.7550  -25.7800 C   0  0  0  0  0  0  0  0  0  0  0  0
  -20.4440   15.7070  -24.7990 C   0  0  0  0  0  0  0  0  0  0  0  0
  -19.9850   14.3270  -25.1530 C   0  0  0  0  0  0  0  0  0  0  0  0
  -19.5620   14.0520  -26.2740 O   0  0  0  0  0  0  0  0  0  0  0  0
  -20.0720   13.3970  -24.1250 N   0  0  0  0  0  0  0  0  0  0  0  0
  -19.7690   12.4500  -24.3370 H   0  0  0  0  0  0  0  0  0  0  0  0
  -20.5370   13.6350  -22.8300 C   0  0  0  0  0  0  0  0  0  0  0  0
  -20.5840   12.7560  -21.9690 O   0  0  0  0  0  0  0  0  0  0  0  0
  -20.9380   14.9390  -22.6000 N   0  0  0  0  0  0  0  0  0  0  0  0
  -21.2880   15.1820  -21.6780 H   0  0  0  0  0  0  0  0  0  0  0  0
  -20.8890   15.9200  -23.5530 C   0  0  0  0  0  0  0  0  0  0  0  0
  1 22  1  1  0  0  0
  2  7  1  0  0  0  0
  3  2  2  0  0  0  0
  3  4  1  0  0  0  0
  4  5  2  0  0  0  0
  5  6  1  0  0  0  0
  5  1  1  0  0  0  0
  7  6  2  0  0  0  0
  8  1  1  0  0  0  0
  8  9  1  0  0  0  0
 10  8  1  0  0  0  0
 11 10  2  0  0  0  0
 12 10  1  0  0  0  0
 12 13  2  0  0  0  0
 14 13  1  0  0  0  0
 14 15  1  0  0  0  0
 15 16  2  0  0  0  0
 17 15  1  0  0  0  0
 17 18  1  0  0  0  0
 19 17  1  0  0  0  0
 20 21  1  0  0  0  0
 20 19  2  0  0  0  0
 21 14  2  0  0  0  0
 22 23  1  0  0  0  0
 23 24  1  0  0  0  0
 25 23  1  0  0  0  0
 25 27  1  0  0  0  0
 26 25  2  0  0  0  0
 27 28  2  0  0  0  0
 28 29  1  0  0  0  0
 29 38  2  0  0  0  0
 30 29  1  0  0  0  0
 30 32  1  0  0  0  0
 31 30  2  0  0  0  0
 32 34  1  0  0  0  0
 33 32  1  0  0  0  0
 34 36  1  0  0  0  0
 34 35  2  0  0  0  0
 36 37  1  0  0  0  0
 38 36  1  0  0  0  0
M  END
>  <ADSCOR>
   -8.04

$$$$
26
 OpenBabel08042116023D

 36 39  0  0  1  0  0  0  0  0999 V2000
  -26.6660   17.9440  -32.1250 C   0  0  0  0  0  0  0  0  0  0  0  0
  -25.8610   16.8630  -32.4860 C   0  0  0  0  0  0  0  0  0  0  0  0
  -24.5690   16.8100  -31.9870 C   0  0  0  0  0  0  0  0  0  0  0  0
  -23.5230   15.7770  -32.2730 C   0  0  0  0  0  0  0  0  0  0  0  0
  -22.5040   16.0410  -31.1480 C   0  0  1  0  0  0  0  0  0  0  0  0
  -22.6350   17.5460  -30.7960 C   0  0  1  0  0  0  0  0  0  0  0  0
  -24.0710   17.8150  -31.1490 C   0  0  0  0  0  0  0  0  0  0  0  0
  -24.8620   18.9000  -30.8010 C   0  0  0  0  0  0  0  0  0  0  0  0
  -26.1700   18.9560  -31.2880 C   0  0  0  0  0  0  0  0  0  0  0  0
  -22.7670   15.1770  -30.0150 N   0  0  0  0  0  0  0  0  0  0  0  0
  -23.1280   15.5980  -29.1600 H   0  0  0  0  0  0  0  0  0  0  0  0
  -22.5550   13.8010  -30.0320 C   0  0  0  0  0  0  0  0  0  0  0  0
  -22.1260   13.1670  -30.9920 O   0  0  0  0  0  0  0  0  0  0  0  0
  -22.9150   13.1660  -28.7130 C   0  0  0  0  0  0  0  0  0  0  0  0
  -22.1780   13.8310  -27.6290 N   0  0  0  0  0  0  0  0  0  0  0  0
  -22.8080   14.8540  -26.9230 C   0  0  0  0  0  0  0  0  0  0  0  0
  -23.9490   15.2690  -27.1190 O   0  0  0  0  0  0  0  0  0  0  0  0
  -21.9930   15.4790  -25.8360 C   0  0  0  0  0  0  0  0  0  0  0  0
  -20.7430   15.0570  -25.5910 C   0  0  0  0  0  0  0  0  0  0  0  0
  -19.8820   15.6450  -24.5170 C   0  0  0  0  0  0  0  0  0  0  0  0
  -20.1740   13.9860  -26.3800 C   0  0  0  0  0  0  0  0  0  0  0  0
  -20.8930   13.4170  -27.3540 C   0  0  0  0  0  0  0  0  0  0  0  0
  -22.2930   17.8560  -29.4350 N   0  0  0  0  0  0  0  0  0  0  0  0
  -23.0490   18.0960  -28.7960 H   0  0  0  0  0  0  0  0  0  0  0  0
  -20.9880   17.7990  -28.9680 C   0  0  0  0  0  0  0  0  0  0  0  0
  -20.0080   17.4880  -29.6370 O   0  0  0  0  0  0  0  0  0  0  0  0
  -20.8940   18.1580  -27.5260 C   0  0  0  0  0  0  0  0  0  0  0  0
  -20.5650   19.4050  -27.1650 C   0  0  0  0  0  0  0  0  0  0  0  0
  -20.4570   19.8190  -25.7940 C   0  0  0  0  0  0  0  0  0  0  0  0
  -19.4910   19.1420  -24.8890 C   0  0  0  0  0  0  0  0  0  0  0  0
  -18.7630   18.2270  -25.2620 O   0  0  0  0  0  0  0  0  0  0  0  0
  -19.4980   19.6440  -23.6010 N   0  0  0  0  0  0  0  0  0  0  0  0
  -18.8660   19.2390  -22.9160 H   0  0  0  0  0  0  0  0  0  0  0  0
  -20.3290   20.6720  -23.2200 C   0  0  0  0  0  0  0  0  0  0  0  0
  -21.1730   21.2680  -23.9980 N   0  0  0  0  0  0  0  0  0  0  0  0
  -21.2090   20.8090  -25.2920 C   0  0  0  0  0  0  0  0  0  0  0  0
  1  9  1  0  0  0  0
  2  1  2  0  0  0  0
  2  3  1  0  0  0  0
  3  7  2  0  0  0  0
  4  3  1  0  0  0  0
  4  5  1  0  0  0  0
  5  6  1  0  0  0  0
  5 10  1  1  0  0  0
  6 23  1  1  0  0  0
  7  8  1  0  0  0  0
  7  6  1  0  0  0  0
  9  8  2  0  0  0  0
 10 11  1  0  0  0  0
 12 10  1  0  0  0  0
 12 14  1  0  0  0  0
 13 12  2  0  0  0  0
 14 15  1  0  0  0  0
 15 22  1  0  0  0  0
 15 16  1  0  0  0  0
 16 18  1  0  0  0  0
 17 16  2  0  0  0  0
 18 19  2  0  0  0  0
 19 20  1  0  0  0  0
 21 19  1  0  0  0  0
 22 21  2  0  0  0  0
 23 25  1  0  0  0  0
 23 24  1  0  0  0  0
 25 27  1  0  0  0  0
 26 25  2  0  0  0  0
 27 28  2  0  0  0  0
 28 29  1  0  0  0  0
 29 36  2  0  0  0  0
 29 30  1  0  0  0  0
 30 32  1  0  0  0  0
 31 30  2  0  0  0  0
 32 34  1  0  0  0  0
 32 33  1  0  0  0  0
 35 34  2  0  0  0  0
 36 35  1  0  0  0  0
M  END
>  <ADSCOR>
   -7.58

$$$$
27
 OpenBabel08042116023D

 38 41  0  0  1  0  0  0  0  0999 V2000
  -21.4160   19.1140  -27.0090 C   0  0  1  0  0  0  0  0  0  0  0  0
  -16.3970   23.0840  -25.7760 C   0  0  0  0  0  0  0  0  0  0  0  0
  -17.5500   22.8160  -25.0380 C   0  0  0  0  0  0  0  0  0  0  0  0
  -18.5090   21.9060  -25.5120 C   0  0  0  0  0  0  0  0  0  0  0  0
  -18.2950   21.2600  -26.7530 C   0  0  0  0  0  0  0  0  0  0  0  0
  -19.2550   20.3500  -27.2280 C   0  0  0  0  0  0  0  0  0  0  0  0
  -20.4080   20.0820  -26.4900 C   0  0  0  0  0  0  0  0  0  0  0  0
  -20.6190   20.7180  -25.2700 C   0  0  0  0  0  0  0  0  0  0  0  0
  -17.1280   21.5410  -27.4820 C   0  0  0  0  0  0  0  0  0  0  0  0
  -19.6770   21.6250  -24.7830 C   0  0  0  0  0  0  0  0  0  0  0  0
  -16.1860   22.4480  -26.9950 C   0  0  0  0  0  0  0  0  0  0  0  0
  -20.8770   17.7390  -27.0640 N   0  0  0  0  0  0  0  0  0  0  0  0
  -20.8320   17.1980  -26.2220 H   0  0  0  0  0  0  0  0  0  0  0  0
  -20.4390   17.1880  -28.2320 C   0  0  0  0  0  0  0  0  0  0  0  0
  -20.4220   17.7010  -29.3460 O   0  0  0  0  0  0  0  0  0  0  0  0
  -19.9470   15.8130  -28.0300 C   0  0  0  0  0  0  0  0  0  0  0  0
  -20.5530   15.0620  -27.0530 N   0  0  0  0  0  0  0  0  0  0  0  0
  -20.0900   13.8640  -26.9110 C   0  0  0  0  0  0  0  0  0  0  0  0
  -19.0650   13.3230  -27.6540 N   0  0  0  0  0  0  0  0  0  0  0  0
  -18.7710   12.3690  -27.4660 H   0  0  0  0  0  0  0  0  0  0  0  0
  -18.4230   14.0360  -28.6470 C   0  0  0  0  0  0  0  0  0  0  0  0
  -17.5070   13.6090  -29.3420 O   0  0  0  0  0  0  0  0  0  0  0  0
  -18.9430   15.4150  -28.8230 C   0  0  0  0  0  0  0  0  0  0  0  0
  -22.7460   19.0970  -26.2180 C   0  0  0  0  0  0  0  0  0  0  0  0
  -22.6120   18.3950  -24.9690 N   0  0  0  0  0  0  0  0  0  0  0  0
  -22.5010   18.9420  -24.1170 H   0  0  0  0  0  0  0  0  0  0  0  0
  -22.6250   17.0080  -24.8630 C   0  0  0  0  0  0  0  0  0  0  0  0
  -22.7510   16.2310  -25.8050 O   0  0  0  0  0  0  0  0  0  0  0  0
  -22.4610   16.5600  -23.4330 C   0  0  0  0  0  0  0  0  0  0  0  0
  -21.2950   15.6710  -23.3260 N   0  0  0  0  0  0  0  0  0  0  0  0
  -21.4780   14.4280  -22.7660 N   0  0  0  0  0  0  0  0  0  0  0  0
  -22.4140   14.1900  -22.4520 H   0  0  0  0  0  0  0  0  0  0  0  0
  -20.4490   13.5320  -22.6280 C   0  0  0  0  0  0  0  0  0  0  0  0
  -20.5780   12.4140  -22.1330 O   0  0  0  0  0  0  0  0  0  0  0  0
  -19.1290   13.9740  -23.1150 C   0  0  0  0  0  0  0  0  0  0  0  0
  -18.9650   15.1810  -23.6540 C   0  0  0  0  0  0  0  0  0  0  0  0
  -20.0950   16.1260  -23.7900 C   0  0  0  0  0  0  0  0  0  0  0  0
  -19.8900   17.2290  -24.2970 O   0  0  0  0  0  0  0  0  0  0  0  0
  1  7  1  0  0  0  0
  1 24  1  1  0  0  0
  2  3  2  0  0  0  0
  4  3  1  0  0  0  0
  4 10  2  0  0  0  0
  5  4  1  0  0  0  0
  6  5  2  0  0  0  0
  6  7  1  0  0  0  0
  7  8  2  0  0  0  0
  8 10  1  0  0  0  0
  9 11  2  0  0  0  0
  9  5  1  0  0  0  0
 11  2  1  0  0  0  0
 12  1  1  0  0  0  0
 12 13  1  0  0  0  0
 14 16  1  0  0  0  0
 14 12  1  0  0  0  0
 15 14  2  0  0  0  0
 16 17  1  0  0  0  0
 17 18  2  0  0  0  0
 19 20  1  0  0  0  0
 19 18  1  0  0  0  0
 21 19  1  0  0  0  0
 22 21  2  0  0  0  0
 23 21  1  0  0  0  0
 23 16  2  0  0  0  0
 24 25  1  0  0  0  0
 25 27  1  0  0  0  0
 25 26  1  0  0  0  0
 27 29  1  0  0  0  0
 28 27  2  0  0  0  0
 29 30  1  0  0  0  0
 30 31  1  0  0  0  0
 31 33  1  0  0  0  0
 31 32  1  0  0  0  0
 33 34  2  0  0  0  0
 35 33  1  0  0  0  0
 36 35  2  0  0  0  0
 37 36  1  0  0  0  0
 37 30  1  0  0  0  0
 38 37  2  0  0  0  0
M  END
>  <ADSCOR>
   -7.76

$$$$
28
 OpenBabel08042116023D

 36 39  0  0  1  0  0  0  0  0999 V2000
  -22.8440   14.1130  -30.7340 C   0  0  0  0  0  0  0  0  0  0  0  0
  -22.4050   13.3320  -29.6640 C   0  0  0  0  0  0  0  0  0  0  0  0
  -21.4130   13.8420  -28.8410 C   0  0  0  0  0  0  0  0  0  0  0  0
  -20.7650   13.1700  -27.6700 C   0  0  0  0  0  0  0  0  0  0  0  0
  -20.0830   14.3580  -26.9640 C   0  0  1  0  0  0  0  0  0  0  0  0
  -19.7690   15.3940  -28.0750 C   0  0  1  0  0  0  0  0  0  0  0  0
  -20.8540   15.1040  -29.0740 C   0  0  0  0  0  0  0  0  0  0  0  0
  -21.2740   15.8760  -30.1460 C   0  0  0  0  0  0  0  0  0  0  0  0
  -22.2820   15.3760  -30.9740 C   0  0  0  0  0  0  0  0  0  0  0  0
  -20.9450   14.8910  -25.9280 N   0  0  0  0  0  0  0  0  0  0  0  0
  -21.9400   14.6760  -25.9700 H   0  0  0  0  0  0  0  0  0  0  0  0
  -20.4860   15.6830  -24.8790 C   0  0  0  0  0  0  0  0  0  0  0  0
  -19.3160   16.0170  -24.7080 O   0  0  0  0  0  0  0  0  0  0  0  0
  -21.6080   16.0920  -23.9590 C   0  0  0  0  0  0  0  0  0  0  0  0
  -21.2280   17.3110  -23.2300 N   0  0  0  0  0  0  0  0  0  0  0  0
  -20.7010   17.1840  -21.9450 C   0  0  0  0  0  0  0  0  0  0  0  0
  -20.5160   16.1270  -21.3430 O   0  0  0  0  0  0  0  0  0  0  0  0
  -20.3420   18.4680  -21.2710 C   0  0  0  0  0  0  0  0  0  0  0  0
  -20.5300   19.6320  -21.9030 C   0  0  0  0  0  0  0  0  0  0  0  0
  -21.0800   19.6730  -23.2310 C   0  0  0  0  0  0  0  0  0  0  0  0
  -21.4080   18.5320  -23.8470 C   0  0  0  0  0  0  0  0  0  0  0  0
  -19.7410   16.7530  -27.6090 N   0  0  0  0  0  0  0  0  0  0  0  0
  -19.9240   16.9220  -26.6220 H   0  0  0  0  0  0  0  0  0  0  0  0
  -19.4380   17.8170  -28.4450 C   0  0  0  0  0  0  0  0  0  0  0  0
  -19.1670   17.7260  -29.6380 O   0  0  0  0  0  0  0  0  0  0  0  0
  -19.4700   19.1200  -27.7260 C   0  0  0  0  0  0  0  0  0  0  0  0
  -18.3720   19.5720  -27.1070 C   0  0  0  0  0  0  0  0  0  0  0  0
  -18.3320   20.8190  -26.3950 C   0  0  0  0  0  0  0  0  0  0  0  0
  -17.2620   21.8060  -26.6900 C   0  0  0  0  0  0  0  0  0  0  0  0
  -16.3900   21.6070  -27.5290 O   0  0  0  0  0  0  0  0  0  0  0  0
  -17.3500   22.9590  -25.9300 N   0  0  0  0  0  0  0  0  0  0  0  0
  -16.6490   23.6790  -26.0780 H   0  0  0  0  0  0  0  0  0  0  0  0
  -18.3430   23.1550  -24.9920 C   0  0  0  0  0  0  0  0  0  0  0  0
  -19.2780   22.2950  -24.7330 N   0  0  0  0  0  0  0  0  0  0  0  0
  -18.2900   24.4620  -24.2560 C   0  0  0  0  0  0  0  0  0  0  0  0
  -19.2400   21.1300  -25.4590 C   0  0  0  0  0  0  0  0  0  0  0  0
  1  2  1  0  0  0  0
  2  3  2  0  0  0  0
  3  4  1  0  0  0  0
  4  5  1  0  0  0  0
  5 10  1  1  0  0  0
  6 22  1  1  0  0  0
  6  5  1  0  0  0  0
  7  3  1  0  0  0  0
  7  6  1  0  0  0  0
  8  7  2  0  0  0  0
  9  1  2  0  0  0  0
  9  8  1  0  0  0  0
 10 12  1  0  0  0  0
 11 10  1  0  0  0  0
 12 13  2  0  0  0  0
 12 14  1  0  0  0  0
 14 15  1  0  0  0  0
 15 16  1  0  0  0  0
 16 17  2  0  0  0  0
 16 18  1  0  0  0  0
 19 18  2  0  0  0  0
 20 19  1  0  0  0  0
 21 20  2  0  0  0  0
 21 15  1  0  0  0  0
 22 23  1  0  0  0  0
 24 26  1  0  0  0  0
 24 22  1  0  0  0  0
 25 24  2  0  0  0  0
 26 27  2  0  0  0  0
 27 28  1  0  0  0  0
 28 36  2  0  0  0  0
 29 28  1  0  0  0  0
 29 31  1  0  0  0  0
 30 29  2  0  0  0  0
 31 33  1  0  0  0  0
 32 31  1  0  0  0  0
 33 34  2  0  0  0  0
 33 35  1  0  0  0  0
 36 34  1  0  0  0  0
M  END
>  <ADSCOR>
   -8.11

$$$$
29
 OpenBabel08042116023D

 37 40  0  0  1  0  0  0  0  0999 V2000
  -22.8670   12.3860  -29.9430 C   0  0  0  0  0  0  0  0  0  0  0  0
  -23.2740   13.0880  -28.8080 C   0  0  0  0  0  0  0  0  0  0  0  0
  -22.3210   13.8000  -28.0980 C   0  0  0  0  0  0  0  0  0  0  0  0
  -22.5190   14.5900  -26.8420 C   0  0  0  0  0  0  0  0  0  0  0  0
  -21.2480   15.4580  -26.8450 C   0  0  2  0  0  0  0  0  0  0  0  0
  -20.1460   14.6130  -27.5280 C   0  0  1  0  0  0  0  0  0  0  0  0
  -20.9760   13.8120  -28.4950 C   0  0  0  0  0  0  0  0  0  0  0  0
  -20.5650   13.1050  -29.6160 C   0  0  0  0  0  0  0  0  0  0  0  0
  -21.5220   12.3940  -30.3450 C   0  0  0  0  0  0  0  0  0  0  0  0
  -20.8770   15.8970  -25.5280 N   0  0  0  0  0  0  0  0  0  0  0  0
  -20.6740   15.1890  -24.8230 H   0  0  0  0  0  0  0  0  0  0  0  0
  -20.7790   17.2370  -25.1640 C   0  0  0  0  0  0  0  0  0  0  0  0
  -20.9940   18.1870  -25.9110 O   0  0  0  0  0  0  0  0  0  0  0  0
  -20.3740   17.3920  -23.7200 C   0  0  0  0  0  0  0  0  0  0  0  0
  -20.5080   16.1020  -23.0300 N   0  0  0  0  0  0  0  0  0  0  0  0
  -21.7760   15.6950  -22.6160 C   0  0  0  0  0  0  0  0  0  0  0  0
  -22.8230   16.3220  -22.7750 O   0  0  0  0  0  0  0  0  0  0  0  0
  -21.8290   14.3720  -21.9200 C   0  0  0  0  0  0  0  0  0  0  0  0
  -20.7060   13.6680  -21.7350 C   0  0  0  0  0  0  0  0  0  0  0  0
  -19.4370   14.1630  -22.1940 C   0  0  0  0  0  0  0  0  0  0  0  0
  -19.3740   15.3460  -22.8170 C   0  0  0  0  0  0  0  0  0  0  0  0
  -19.0640   15.4720  -28.1680 C   0  0  0  0  0  0  0  0  0  0  0  0
  -19.1840   16.8200  -27.7190 N   0  0  0  0  0  0  0  0  0  0  0  0
  -19.2380   16.9990  -26.7120 H   0  0  0  0  0  0  0  0  0  0  0  0
  -19.1920   17.9080  -28.5920 C   0  0  0  0  0  0  0  0  0  0  0  0
  -19.0970   17.8280  -29.8120 O   0  0  0  0  0  0  0  0  0  0  0  0
  -19.3220   19.2090  -27.8800 C   0  0  0  0  0  0  0  0  0  0  0  0
  -18.3950   19.5810  -26.9870 C   0  0  0  0  0  0  0  0  0  0  0  0
  -18.4590   20.8210  -26.2660 C   0  0  0  0  0  0  0  0  0  0  0  0
  -17.3000   21.7490  -26.2820 C   0  0  0  0  0  0  0  0  0  0  0  0
  -16.2650   21.5040  -26.8960 O   0  0  0  0  0  0  0  0  0  0  0  0
  -17.5030   22.9010  -25.5450 N   0  0  0  0  0  0  0  0  0  0  0  0
  -16.7500   23.5830  -25.5120 H   0  0  0  0  0  0  0  0  0  0  0  0
  -18.6780   23.1480  -24.8650 C   0  0  0  0  0  0  0  0  0  0  0  0
  -19.6910   22.3400  -24.8480 N   0  0  0  0  0  0  0  0  0  0  0  0
  -18.7320   24.4470  -24.1150 C   0  0  0  0  0  0  0  0  0  0  0  0
  -19.5450   21.1780  -25.5640 C   0  0  0  0  0  0  0  0  0  0  0  0
  1  2  1  0  0  0  0
  2  3  2  0  0  0  0
  3  4  1  0  0  0  0
  5  4  1  0  0  0  0
  5 10  1  1  0  0  0
  6 22  1  6  0  0  0
  6  5  1  0  0  0  0
  7  3  1  0  0  0  0
  7  6  1  0  0  0  0
  8  7  2  0  0  0  0
  9  1  2  0  0  0  0
  9  8  1  0  0  0  0
 10 12  1  0  0  0  0
 10 11  1  0  0  0  0
 12 14  1  0  0  0  0
 13 12  2  0  0  0  0
 14 15  1  0  0  0  0
 15 21  1  0  0  0  0
 15 16  1  0  0  0  0
 16 18  1  0  0  0  0
 17 16  2  0  0  0  0
 18 19  2  0  0  0  0
 20 19  1  0  0  0  0
 21 20  2  0  0  0  0
 22 23  1  0  0  0  0
 23 24  1  0  0  0  0
 25 27  1  0  0  0  0
 25 23  1  0  0  0  0
 26 25  2  0  0  0  0
 27 28  2  0  0  0  0
 28 29  1  0  0  0  0
 29 37  2  0  0  0  0
 30 29  1  0  0  0  0
 30 32  1  0  0  0  0
 31 30  2  0  0  0  0
 32 33  1  0  0  0  0
 32 34  1  0  0  0  0
 34 35  2  0  0  0  0
 34 36  1  0  0  0  0
 37 35  1  0  0  0  0
M  END
>  <ADSCOR>
   -9.40

$$$$
3
 OpenBabel08042116023D

 40 43  0  0  1  0  0  0  0  0999 V2000
  -21.3210   17.1400  -25.7390 C   0  0  1  0  0  0  0  0  0  0  0  0
  -22.1710   13.0220  -30.7190 C   0  0  0  0  0  0  0  0  0  0  0  0
  -21.7600   12.7920  -29.4060 C   0  0  0  0  0  0  0  0  0  0  0  0
  -21.6480   13.8550  -28.4930 C   0  0  0  0  0  0  0  0  0  0  0  0
  -21.9560   15.1670  -28.9200 C   0  0  0  0  0  0  0  0  0  0  0  0
  -21.8440   16.2300  -28.0080 C   0  0  0  0  0  0  0  0  0  0  0  0
  -21.4340   16.0000  -26.6950 C   0  0  0  0  0  0  0  0  0  0  0  0
  -21.1310   14.7090  -26.2750 C   0  0  0  0  0  0  0  0  0  0  0  0
  -22.3680   15.3810  -30.2460 C   0  0  0  0  0  0  0  0  0  0  0  0
  -21.2370   13.6410  -27.1680 C   0  0  0  0  0  0  0  0  0  0  0  0
  -22.4740   14.3130  -31.1380 C   0  0  0  0  0  0  0  0  0  0  0  0
  -21.2390   18.4370  -26.4420 N   0  0  0  0  0  0  0  0  0  0  0  0
  -22.0530   18.7900  -26.9070 H   0  0  0  0  0  0  0  0  0  0  0  0
  -20.0840   19.1730  -26.4780 C   0  0  0  0  0  0  0  0  0  0  0  0
  -19.0120   18.8740  -25.9590 O   0  0  0  0  0  0  0  0  0  0  0  0
  -20.2980   20.4410  -27.2660 C   0  0  0  0  0  0  0  0  0  0  0  0
  -19.0360   21.1900  -27.3470 N   0  0  0  0  0  0  0  0  0  0  0  0
  -18.0900   21.2400  -26.2720 C   0  0  0  0  0  0  0  0  0  0  0  0
  -17.0290   22.1200  -26.8970 C   0  0  0  0  0  0  0  0  0  0  0  0
  -15.9930   22.4540  -26.3410 O   0  0  0  0  0  0  0  0  0  0  0  0
  -17.4330   22.4620  -28.1630 N   0  0  0  0  0  0  0  0  0  0  0  0
  -16.8980   23.0490  -28.7940 H   0  0  0  0  0  0  0  0  0  0  0  0
  -18.6590   21.9090  -28.4700 C   0  0  0  0  0  0  0  0  0  0  0  0
  -19.2670   22.0400  -29.5240 O   0  0  0  0  0  0  0  0  0  0  0  0
  -22.4640   17.2080  -24.6980 C   0  0  0  0  0  0  0  0  0  0  0  0
  -22.1390   18.0930  -23.6090 N   0  0  0  0  0  0  0  0  0  0  0  0
  -21.4910   18.8560  -23.7920 H   0  0  0  0  0  0  0  0  0  0  0  0
  -22.7080   17.9600  -22.3510 C   0  0  0  0  0  0  0  0  0  0  0  0
  -23.5260   17.1030  -22.0300 O   0  0  0  0  0  0  0  0  0  0  0  0
  -22.2160   18.9960  -21.4020 C   0  0  0  0  0  0  0  0  0  0  0  0
  -21.1370   18.7550  -20.6450 C   0  0  0  0  0  0  0  0  0  0  0  0
  -20.6100   19.7080  -19.7090 C   0  0  0  0  0  0  0  0  0  0  0  0
  -19.5290   20.6370  -20.1270 C   0  0  0  0  0  0  0  0  0  0  0  0
  -19.0520   20.6320  -21.2580 O   0  0  0  0  0  0  0  0  0  0  0  0
  -19.1200   21.4970  -19.1240 N   0  0  0  0  0  0  0  0  0  0  0  0
  -18.3820   22.1620  -19.3400 H   0  0  0  0  0  0  0  0  0  0  0  0
  -19.6760   21.4800  -17.8610 C   0  0  0  0  0  0  0  0  0  0  0  0
  -20.6190   20.6700  -17.4930 N   0  0  0  0  0  0  0  0  0  0  0  0
  -19.1150   22.4800  -16.8920 C   0  0  0  0  0  0  0  0  0  0  0  0
  -21.0650   19.7920  -18.4510 C   0  0  0  0  0  0  0  0  0  0  0  0
  1 25  1  1  0  0  0
  2  3  1  0  0  0  0
  3  4  2  0  0  0  0
  4 10  1  0  0  0  0
  5  4  1  0  0  0  0
  5  6  1  0  0  0  0
  6  7  2  0  0  0  0
  7  8  1  0  0  0  0
  7  1  1  0  0  0  0
  9  5  2  0  0  0  0
 10  8  2  0  0  0  0
 11  2  2  0  0  0  0
 11  9  1  0  0  0  0
 12  1  1  0  0  0  0
 13 12  1  0  0  0  0
 14 12  1  0  0  0  0
 14 15  2  0  0  0  0
 16 14  1  0  0  0  0
 17 16  1  0  0  0  0
 17 18  1  0  0  0  0
 19 20  2  0  0  0  0
 19 18  1  0  0  0  0
 21 19  1  0  0  0  0
 22 21  1  0  0  0  0
 23 21  1  0  0  0  0
 23 17  1  0  0  0  0
 24 23  2  0  0  0  0
 25 26  1  0  0  0  0
 26 28  1  0  0  0  0
 27 26  1  0  0  0  0
 28 29  2  0  0  0  0
 28 30  1  0  0  0  0
 30 31  2  0  0  0  0
 31 32  1  0  0  0  0
 32 40  2  0  0  0  0
 33 32  1  0  0  0  0
 33 35  1  0  0  0  0
 34 33  2  0  0  0  0
 35 37  1  0  0  0  0
 36 35  1  0  0  0  0
 37 38  2  0  0  0  0
 37 39  1  0  0  0  0
 40 38  1  0  0  0  0
M  END
>  <ADSCOR>
   -9.54

$$$$
30
 OpenBabel08042116023D

 41 45  0  0  1  0  0  0  0  0999 V2000
  -19.8470   15.5060  -25.2530 C   0  0  1  0  0  0  0  0  0  0  0  0
  -23.1520   13.6660  -30.5600 C   0  0  0  0  0  0  0  0  0  0  0  0
  -23.0480   14.9090  -29.9370 C   0  0  0  0  0  0  0  0  0  0  0  0
  -22.2640   15.0690  -28.7830 C   0  0  0  0  0  0  0  0  0  0  0  0
  -21.5740   13.9510  -28.2560 C   0  0  0  0  0  0  0  0  0  0  0  0
  -20.7880   14.1110  -27.1020 C   0  0  0  0  0  0  0  0  0  0  0  0
  -20.6850   15.3540  -26.4770 C   0  0  0  0  0  0  0  0  0  0  0  0
  -21.3640   16.4530  -26.9960 C   0  0  0  0  0  0  0  0  0  0  0  0
  -21.6890   12.7070  -28.8970 C   0  0  0  0  0  0  0  0  0  0  0  0
  -22.1480   16.3120  -28.1420 C   0  0  0  0  0  0  0  0  0  0  0  0
  -22.4740   12.5670  -30.0430 C   0  0  0  0  0  0  0  0  0  0  0  0
  -20.2070   16.7190  -24.4890 N   0  0  0  0  0  0  0  0  0  0  0  0
  -20.8880   16.6460  -23.7590 H   0  0  0  0  0  0  0  0  0  0  0  0
  -19.6400   17.9380  -24.7480 C   0  0  0  0  0  0  0  0  0  0  0  0
  -18.7960   18.1810  -25.6070 O   0  0  0  0  0  0  0  0  0  0  0  0
  -20.2010   18.9830  -23.8180 C   0  0  0  0  0  0  0  0  0  0  0  0
  -21.6040   19.2540  -24.1680 N   0  0  0  0  0  0  0  0  0  0  0  0
  -21.8880   20.4160  -24.8470 N   0  0  0  0  0  0  0  0  0  0  0  0
  -21.1100   21.0280  -25.0710 H   0  0  0  0  0  0  0  0  0  0  0  0
  -23.1670   20.7490  -25.2150 C   0  0  0  0  0  0  0  0  0  0  0  0
  -23.4550   21.7780  -25.8230 O   0  0  0  0  0  0  0  0  0  0  0  0
  -24.2250   19.7930  -24.8410 C   0  0  0  0  0  0  0  0  0  0  0  0
  -23.9360   18.6710  -24.1820 C   0  0  0  0  0  0  0  0  0  0  0  0
  -22.5480   18.3380  -23.7990 C   0  0  0  0  0  0  0  0  0  0  0  0
  -22.3320   17.2890  -23.1910 O   0  0  0  0  0  0  0  0  0  0  0  0
  -19.8880   14.2860  -24.3020 C   0  0  0  0  0  0  0  0  0  0  0  0
  -20.7600   14.5180  -23.1790 N   0  0  0  0  0  0  0  0  0  0  0  0
  -21.2140   15.4260  -23.1200 H   0  0  0  0  0  0  0  0  0  0  0  0
  -21.0550   13.5330  -22.2450 C   0  0  0  0  0  0  0  0  0  0  0  0
  -20.6160   12.3860  -22.2760 O   0  0  0  0  0  0  0  0  0  0  0  0
  -21.9920   13.9230  -21.1600 C   0  0  0  0  0  0  0  0  0  0  0  0
  -22.9210   13.0580  -20.7500 N   0  0  0  0  0  0  0  0  0  0  0  0
  -23.5890   13.7220  -19.7720 N   0  0  0  0  0  0  0  0  0  0  0  0
  -24.6630   13.2820  -19.0010 C   0  0  0  0  0  0  0  0  0  0  0  0
  -25.1930   14.0930  -18.0740 C   0  0  0  0  0  0  0  0  0  0  0  0
  -24.6950   15.3630  -17.8660 N   0  0  0  0  0  0  0  0  0  0  0  0
  -25.1310   15.9390  -17.1520 H   0  0  0  0  0  0  0  0  0  0  0  0
  -23.6210   15.9020  -18.5860 C   0  0  0  0  0  0  0  0  0  0  0  0
  -23.1930   17.0360  -18.3830 O   0  0  0  0  0  0  0  0  0  0  0  0
  -23.0700   14.9980  -19.5810 C   0  0  0  0  0  0  0  0  0  0  0  0
  -22.0350   15.1450  -20.4720 C   0  0  0  0  0  0  0  0  0  0  0  0
  1 12  1  0  0  0  0
  1 26  1  1  0  0  0
  2 11  2  0  0  0  0
  2  3  1  0  0  0  0
  3  4  2  0  0  0  0
  4  5  1  0  0  0  0
  4 10  1  0  0  0  0
  5  6  1  0  0  0  0
  6  7  2  0  0  0  0
  7  1  1  0  0  0  0
  8  7  1  0  0  0  0
  9  5  2  0  0  0  0
 10  8  2  0  0  0  0
 11  9  1  0  0  0  0
 12 13  1  0  0  0  0
 14 12  1  0  0  0  0
 14 16  1  0  0  0  0
 15 14  2  0  0  0  0
 17 16  1  0  0  0  0
 17 24  1  0  0  0  0
 18 17  1  0  0  0  0
 19 18  1  0  0  0  0
 20 18  1  0  0  0  0
 20 22  1  0  0  0  0
 21 20  2  0  0  0  0
 22 23  2  0  0  0  0
 23 24  1  0  0  0  0
 24 25  2  0  0  0  0
 26 27  1  0  0  0  0
 27 28  1  0  0  0  0
 27 29  1  0  0  0  0
 29 31  1  0  0  0  0
 30 29  2  0  0  0  0
 31 32  2  0  0  0  0
 31 41  1  0  0  0  0
 32 33  1  0  0  0  0
 33 40  1  0  0  0  0
 33 34  1  0  0  0  0
 34 35  2  0  0  0  0
 35 36  1  0  0  0  0
 36 37  1  0  0  0  0
 38 39  2  0  0  0  0
 38 36  1  0  0  0  0
 40 38  1  0  0  0  0
 41 40  2  0  0  0  0
M  END
>  <ADSCOR>
   -7.95

$$$$
31
 OpenBabel08042116023D

 38 41  0  0  1  0  0  0  0  0999 V2000
  -21.3870   17.9680  -26.8130 C   0  0  1  0  0  0  0  0  0  0  0  0
  -21.7810   12.1400  -29.7030 C   0  0  0  0  0  0  0  0  0  0  0  0
  -20.8240   13.1490  -29.8120 C   0  0  0  0  0  0  0  0  0  0  0  0
  -20.9510   14.3400  -29.0790 C   0  0  0  0  0  0  0  0  0  0  0  0
  -22.0660   14.5100  -28.2240 C   0  0  0  0  0  0  0  0  0  0  0  0
  -22.1940   15.7010  -27.4910 C   0  0  0  0  0  0  0  0  0  0  0  0
  -21.2370   16.7100  -27.5990 C   0  0  0  0  0  0  0  0  0  0  0  0
  -20.1410   16.5430  -28.4400 C   0  0  0  0  0  0  0  0  0  0  0  0
  -23.0200   13.4840  -28.1270 C   0  0  0  0  0  0  0  0  0  0  0  0
  -19.9970   15.3660  -29.1750 C   0  0  0  0  0  0  0  0  0  0  0  0
  -22.8780   12.3070  -28.8620 C   0  0  0  0  0  0  0  0  0  0  0  0
  -20.5150   19.0440  -27.3300 N   0  0  0  0  0  0  0  0  0  0  0  0
  -20.7380   19.4740  -28.2070 H   0  0  0  0  0  0  0  0  0  0  0  0
  -19.4160   19.4660  -26.6440 C   0  0  0  0  0  0  0  0  0  0  0  0
  -18.9980   19.0550  -25.5670 O   0  0  0  0  0  0  0  0  0  0  0  0
  -18.7100   20.5420  -27.3620 C   0  0  0  0  0  0  0  0  0  0  0  0
  -17.5150   20.9950  -26.8790 N   0  0  0  0  0  0  0  0  0  0  0  0
  -17.1310   20.5850  -26.0340 H   0  0  0  0  0  0  0  0  0  0  0  0
  -16.8230   21.9970  -27.5200 C   0  0  0  0  0  0  0  0  0  0  0  0
  -15.7540   22.4870  -27.1930 O   0  0  0  0  0  0  0  0  0  0  0  0
  -17.5000   22.5190  -28.7580 C   0  0  0  0  0  0  0  0  0  0  0  0
  -18.6350   22.0750  -29.2000 N   0  0  0  0  0  0  0  0  0  0  0  0
  -19.2300   21.0720  -28.4750 C   0  0  0  0  0  0  0  0  0  0  0  0
  -22.8390   18.4970  -26.7340 C   0  0  0  0  0  0  0  0  0  0  0  0
  -23.3230   18.9190  -28.0220 N   0  0  0  0  0  0  0  0  0  0  0  0
  -23.9330   18.2870  -28.5380 H   0  0  0  0  0  0  0  0  0  0  0  0
  -23.0050   20.1440  -28.5980 C   0  0  0  0  0  0  0  0  0  0  0  0
  -22.2850   20.9970  -28.0860 O   0  0  0  0  0  0  0  0  0  0  0  0
  -23.6540   20.3070  -29.9480 C   0  0  0  0  0  0  0  0  0  0  0  0
  -23.4350   19.0950  -30.7500 N   0  0  0  0  0  0  0  0  0  0  0  0
  -24.5240   18.5140  -31.3580 N   0  0  0  0  0  0  0  0  0  0  0  0
  -25.4280   18.9570  -31.2180 H   0  0  0  0  0  0  0  0  0  0  0  0
  -24.4120   17.3850  -32.1270 C   0  0  0  0  0  0  0  0  0  0  0  0
  -25.3640   16.8420  -32.6840 O   0  0  0  0  0  0  0  0  0  0  0  0
  -23.0570   16.8200  -32.2670 C   0  0  0  0  0  0  0  0  0  0  0  0
  -22.0100   17.3920  -31.6710 C   0  0  0  0  0  0  0  0  0  0  0  0
  -22.1610   18.6120  -30.8490 C   0  0  0  0  0  0  0  0  0  0  0  0
  -21.1640   19.1010  -30.3220 O   0  0  0  0  0  0  0  0  0  0  0  0
  1 24  1  6  0  0  0
  2 11  1  0  0  0  0
  3  2  2  0  0  0  0
  3  4  1  0  0  0  0
  4  5  1  0  0  0  0
  5  9  1  0  0  0  0
  5  6  2  0  0  0  0
  7  6  1  0  0  0  0
  7  1  1  0  0  0  0
  8  7  2  0  0  0  0
 10  4  2  0  0  0  0
 10  8  1  0  0  0  0
 11  9  2  0  0  0  0
 12  1  1  0  0  0  0
 12 14  1  0  0  0  0
 13 12  1  0  0  0  0
 14 15  2  0  0  0  0
 16 17  1  0  0  0  0
 16 14  1  0  0  0  0
 17 18  1  0  0  0  0
 19 20  2  0  0  0  0
 19 17  1  0  0  0  0
 21 19  1  0  0  0  0
 22 21  2  0  0  0  0
 22 23  1  0  0  0  0
 23 16  2  0  0  0  0
 25 24  1  0  0  0  0
 26 25  1  0  0  0  0
 27 28  2  0  0  0  0
 27 25  1  0  0  0  0
 29 27  1  0  0  0  0
 30 29  1  0  0  0  0
 31 32  1  0  0  0  0
 31 30  1  0  0  0  0
 33 31  1  0  0  0  0
 34 33  2  0  0  0  0
 35 33  1  0  0  0  0
 35 36  2  0  0  0  0
 36 37  1  0  0  0  0
 37 30  1  0  0  0  0
 37 38  2  0  0  0  0
M  END
>  <ADSCOR>
   -7.71

$$$$
32
 OpenBabel08042116023D

 38 41  0  0  1  0  0  0  0  0999 V2000
  -19.7670   18.9640  -29.1580 C   0  0  1  0  0  0  0  0  0  0  0  0
  -22.2150   12.9290  -28.9230 C   0  0  0  0  0  0  0  0  0  0  0  0
  -20.9160   13.3950  -28.7190 C   0  0  0  0  0  0  0  0  0  0  0  0
  -20.6210   14.7640  -28.8240 C   0  0  0  0  0  0  0  0  0  0  0  0
  -21.6580   15.6730  -29.1410 C   0  0  0  0  0  0  0  0  0  0  0  0
  -21.3620   17.0420  -29.2460 C   0  0  0  0  0  0  0  0  0  0  0  0
  -20.0630   17.5080  -29.0420 C   0  0  0  0  0  0  0  0  0  0  0  0
  -19.0430   16.6140  -28.7310 C   0  0  0  0  0  0  0  0  0  0  0  0
  -22.9600   15.1870  -29.3420 C   0  0  0  0  0  0  0  0  0  0  0  0
  -19.3180   15.2500  -28.6230 C   0  0  0  0  0  0  0  0  0  0  0  0
  -23.2350   13.8230  -29.2340 C   0  0  0  0  0  0  0  0  0  0  0  0
  -20.5780   19.6050  -30.2150 N   0  0  0  0  0  0  0  0  0  0  0  0
  -21.2310   19.0500  -30.7330 H   0  0  0  0  0  0  0  0  0  0  0  0
  -20.4600   20.9330  -30.5010 C   0  0  0  0  0  0  0  0  0  0  0  0
  -19.7200   21.7540  -29.9720 O   0  0  0  0  0  0  0  0  0  0  0  0
  -21.3700   21.3330  -31.5900 C   0  0  0  0  0  0  0  0  0  0  0  0
  -20.9530   22.2540  -32.4680 C   0  0  0  0  0  0  0  0  0  0  0  0
  -21.7690   22.6560  -33.4970 N   0  0  0  0  0  0  0  0  0  0  0  0
  -21.4190   23.3560  -34.1440 H   0  0  0  0  0  0  0  0  0  0  0  0
  -23.0460   22.1550  -33.7030 C   0  0  0  0  0  0  0  0  0  0  0  0
  -23.7840   22.5060  -34.6200 O   0  0  0  0  0  0  0  0  0  0  0  0
  -23.5010   21.1290  -32.7200 C   0  0  0  0  0  0  0  0  0  0  0  0
  -22.6850   20.7560  -31.7240 C   0  0  0  0  0  0  0  0  0  0  0  0
  -19.9480   19.7550  -27.8410 C   0  0  0  0  0  0  0  0  0  0  0  0
  -20.7020   19.0060  -26.8700 N   0  0  0  0  0  0  0  0  0  0  0  0
  -21.7170   19.0810  -26.8860 H   0  0  0  0  0  0  0  0  0  0  0  0
  -20.1170   18.1840  -25.9130 C   0  0  0  0  0  0  0  0  0  0  0  0
  -18.9100   18.0020  -25.7820 O   0  0  0  0  0  0  0  0  0  0  0  0
  -21.1550   17.5320  -25.0340 C   0  0  0  0  0  0  0  0  0  0  0  0
  -20.6360   16.2560  -24.5230 N   0  0  0  0  0  0  0  0  0  0  0  0
  -19.3980   16.2530  -23.9220 N   0  0  0  0  0  0  0  0  0  0  0  0
  -18.9060   17.1400  -23.8640 H   0  0  0  0  0  0  0  0  0  0  0  0
  -18.8370   15.1110  -23.4130 C   0  0  0  0  0  0  0  0  0  0  0  0
  -17.7350   15.0740  -22.8700 O   0  0  0  0  0  0  0  0  0  0  0  0
  -19.6330   13.8760  -23.5480 C   0  0  0  0  0  0  0  0  0  0  0  0
  -20.8300   13.8920  -24.1330 C   0  0  0  0  0  0  0  0  0  0  0  0
  -21.4100   15.1410  -24.6710 C   0  0  0  0  0  0  0  0  0  0  0  0
  -22.5200   15.1000  -25.2020 O   0  0  0  0  0  0  0  0  0  0  0  0
  1  7  1  0  0  0  0
  1 24  1  1  0  0  0
  2  3  2  0  0  0  0
  4  3  1  0  0  0  0
  4 10  2  0  0  0  0
  5  4  1  0  0  0  0
  6  5  2  0  0  0  0
  6  7  1  0  0  0  0
  7  8  2  0  0  0  0
  8 10  1  0  0  0  0
  9 11  2  0  0  0  0
  9  5  1  0  0  0  0
 11  2  1  0  0  0  0
 12  1  1  0  0  0  0
 13 12  1  0  0  0  0
 14 12  1  0  0  0  0
 14 15  2  0  0  0  0
 16 14  1  0  0  0  0
 17 16  2  0  0  0  0
 18 17  1  0  0  0  0
 19 18  1  0  0  0  0
 20 18  1  0  0  0  0
 20 22  1  0  0  0  0
 21 20  2  0  0  0  0
 22 23  2  0  0  0  0
 23 16  1  0  0  0  0
 24 25  1  0  0  0  0
 25 27  1  0  0  0  0
 26 25  1  0  0  0  0
 27 28  2  0  0  0  0
 27 29  1  0  0  0  0
 29 30  1  0  0  0  0
 30 31  1  0  0  0  0
 31 32  1  0  0  0  0
 31 33  1  0  0  0  0
 33 34  2  0  0  0  0
 35 33  1  0  0  0  0
 36 35  2  0  0  0  0
 37 30  1  0  0  0  0
 37 36  1  0  0  0  0
 38 37  2  0  0  0  0
M  END
>  <ADSCOR>
   -8.83

$$$$
33
 OpenBabel08042116023D

 40 43  0  0  1  0  0  0  0  0999 V2000
  -22.2280   12.6790  -30.0920 C   0  0  0  0  0  0  0  0  0  0  0  0
  -22.9680   13.3150  -29.0940 C   0  0  0  0  0  0  0  0  0  0  0  0
  -22.2900   13.8350  -28.0040 C   0  0  0  0  0  0  0  0  0  0  0  0
  -22.8600   14.5840  -26.8390 C   0  0  0  0  0  0  0  0  0  0  0  0
  -21.6990   14.4840  -25.8310 C   0  0  1  0  0  0  0  0  0  0  0  0
  -20.3950   14.4110  -26.6620 C   0  0  1  0  0  0  0  0  0  0  0  0
  -20.8950   13.7410  -27.9080 C   0  0  0  0  0  0  0  0  0  0  0  0
  -20.1540   13.1170  -28.8970 C   0  0  0  0  0  0  0  0  0  0  0  0
  -20.8300   12.5800  -29.9940 C   0  0  0  0  0  0  0  0  0  0  0  0
  -21.7270   15.5380  -24.8560 N   0  0  0  0  0  0  0  0  0  0  0  0
  -22.6130   16.0120  -24.6800 H   0  0  0  0  0  0  0  0  0  0  0  0
  -20.6100   15.9470  -24.1390 C   0  0  0  0  0  0  0  0  0  0  0  0
  -19.4840   15.4700  -24.2460 O   0  0  0  0  0  0  0  0  0  0  0  0
  -20.9220   17.0590  -23.1970 C   0  0  0  0  0  0  0  0  0  0  0  0
  -20.2970   17.1280  -22.0120 C   0  0  0  0  0  0  0  0  0  0  0  0
  -20.5200   18.1850  -21.0100 C   0  0  0  0  0  0  0  0  0  0  0  0
  -21.5600   18.0620  -20.0880 C   0  0  0  0  0  0  0  0  0  0  0  0
  -21.7710   19.0610  -19.1380 C   0  0  0  0  0  0  0  0  0  0  0  0
  -20.9450   20.1850  -19.1120 C   0  0  0  0  0  0  0  0  0  0  0  0
  -19.9060   20.3080  -20.0340 C   0  0  0  0  0  0  0  0  0  0  0  0
  -19.6930   19.3090  -20.9830 C   0  0  0  0  0  0  0  0  0  0  0  0
  -21.1660   21.2270  -18.1210 C   0  0  0  0  0  0  0  0  0  0  0  0
  -21.9120   22.1940  -18.3550 O   0  0  0  0  0  0  0  0  0  0  0  0
  -20.5270   21.0980  -16.8920 N   0  0  0  0  0  0  0  0  0  0  0  0
  -20.6420   21.7920  -16.1600 H   0  0  0  0  0  0  0  0  0  0  0  0
  -19.9350   20.2930  -16.7220 H   0  0  0  0  0  0  0  0  0  0  0  0
  -19.8190   15.6980  -26.9540 N   0  0  0  0  0  0  0  0  0  0  0  0
  -19.1190   16.0620  -26.3120 H   0  0  0  0  0  0  0  0  0  0  0  0
  -20.1580   16.4200  -28.0880 C   0  0  0  0  0  0  0  0  0  0  0  0
  -20.9590   16.0610  -28.9450 O   0  0  0  0  0  0  0  0  0  0  0  0
  -19.4240   17.7140  -28.1660 C   0  0  0  0  0  0  0  0  0  0  0  0
  -19.9060   18.7970  -27.5430 C   0  0  0  0  0  0  0  0  0  0  0  0
  -19.2520   20.0760  -27.5770 C   0  0  0  0  0  0  0  0  0  0  0  0
  -18.4810   20.5470  -26.3960 C   0  0  0  0  0  0  0  0  0  0  0  0
  -18.3710   19.8830  -25.3700 O   0  0  0  0  0  0  0  0  0  0  0  0
  -17.9100   21.7920  -26.5730 N   0  0  0  0  0  0  0  0  0  0  0  0
  -17.3650   22.1900  -25.8150 H   0  0  0  0  0  0  0  0  0  0  0  0
  -18.0580   22.5080  -27.7400 C   0  0  0  0  0  0  0  0  0  0  0  0
  -18.7240   22.1090  -28.7720 N   0  0  0  0  0  0  0  0  0  0  0  0
  -19.3150   20.8740  -28.6530 C   0  0  0  0  0  0  0  0  0  0  0  0
  1  9  2  0  0  0  0
  1  2  1  0  0  0  0
  2  3  2  0  0  0  0
  3  7  1  0  0  0  0
  3  4  1  0  0  0  0
  4  5  1  0  0  0  0
  5 10  1  1  0  0  0
  6 27  1  6  0  0  0
  6  5  1  0  0  0  0
  7  6  1  0  0  0  0
  8  7  2  0  0  0  0
  9  8  1  0  0  0  0
 10 11  1  0  0  0  0
 10 12  1  0  0  0  0
 12 14  1  0  0  0  0
 13 12  2  0  0  0  0
 14 15  2  0  0  0  0
 15 16  1  0  0  0  0
 16 21  2  0  0  0  0
 16 17  1  0  0  0  0
 17 18  2  0  0  0  0
 18 19  1  0  0  0  0
 19 22  1  0  0  0  0
 20 19  2  0  0  0  0
 21 20  1  0  0  0  0
 22 24  1  0  0  0  0
 23 22  2  0  0  0  0
 24 26  1  0  0  0  0
 24 25  1  0  0  0  0
 27 28  1  0  0  0  0
 29 27  1  0  0  0  0
 30 29  2  0  0  0  0
 31 29  1  0  0  0  0
 31 32  2  0  0  0  0
 33 32  1  0  0  0  0
 33 34  1  0  0  0  0
 34 35  2  0  0  0  0
 36 34  1  0  0  0  0
 36 37  1  0  0  0  0
 38 36  1  0  0  0  0
 39 40  1  0  0  0  0
 39 38  2  0  0  0  0
 40 33  2  0  0  0  0
M  END
>  <ADSCOR>
   -8.73

$$$$
34
 OpenBabel08042116023D

 37 40  0  0  1  0  0  0  0  0999 V2000
  -22.4890   17.8000  -25.7240 C   0  0  1  0  0  0  0  0  0  0  0  0
  -20.8660   12.9300  -29.7390 C   0  0  0  0  0  0  0  0  0  0  0  0
  -20.0720   13.8450  -29.0490 C   0  0  0  0  0  0  0  0  0  0  0  0
  -20.6560   14.8240  -28.2280 C   0  0  0  0  0  0  0  0  0  0  0  0
  -22.0640   14.8730  -28.1040 C   0  0  0  0  0  0  0  0  0  0  0  0
  -22.6480   15.8510  -27.2820 C   0  0  0  0  0  0  0  0  0  0  0  0
  -21.8540   16.7680  -26.5930 C   0  0  0  0  0  0  0  0  0  0  0  0
  -20.4670   16.7190  -26.7140 C   0  0  0  0  0  0  0  0  0  0  0  0
  -22.8480   13.9430  -28.8060 C   0  0  0  0  0  0  0  0  0  0  0  0
  -19.8710   15.7540  -27.5260 C   0  0  0  0  0  0  0  0  0  0  0  0
  -22.2520   12.9780  -29.6180 C   0  0  0  0  0  0  0  0  0  0  0  0
  -22.0890   17.6480  -24.3090 N   0  0  0  0  0  0  0  0  0  0  0  0
  -22.7430   17.2550  -23.6610 H   0  0  0  0  0  0  0  0  0  0  0  0
  -20.8540   18.0270  -23.8560 C   0  0  0  0  0  0  0  0  0  0  0  0
  -19.9520   18.5200  -24.5290 O   0  0  0  0  0  0  0  0  0  0  0  0
  -20.7330   17.7570  -22.3790 C   0  0  0  0  0  0  0  0  0  0  0  0
  -20.8610   16.3140  -22.1290 N   0  0  0  0  0  0  0  0  0  0  0  0
  -19.7070   15.5710  -22.0250 N   0  0  0  0  0  0  0  0  0  0  0  0
  -18.8250   16.0620  -22.1280 H   0  0  0  0  0  0  0  0  0  0  0  0
  -19.7310   14.2190  -21.7910 C   0  0  0  0  0  0  0  0  0  0  0  0
  -18.7200   13.5270  -21.6920 O   0  0  0  0  0  0  0  0  0  0  0  0
  -21.0630   13.6020  -21.6580 C   0  0  0  0  0  0  0  0  0  0  0  0
  -22.1730   14.3330  -21.7630 C   0  0  0  0  0  0  0  0  0  0  0  0
  -22.1160   15.7880  -22.0140 C   0  0  0  0  0  0  0  0  0  0  0  0
  -23.1700   16.4190  -22.1010 O   0  0  0  0  0  0  0  0  0  0  0  0
  -22.2130   19.2570  -26.1660 C   0  0  0  0  0  0  0  0  0  0  0  0
  -20.8820   19.4080  -26.6950 N   0  0  0  0  0  0  0  0  0  0  0  0
  -20.1240   18.8820  -26.2660 H   0  0  0  0  0  0  0  0  0  0  0  0
  -20.5890   20.2420  -27.7680 C   0  0  0  0  0  0  0  0  0  0  0  0
  -21.4120   20.9270  -28.3690 O   0  0  0  0  0  0  0  0  0  0  0  0
  -19.1120   20.2130  -28.1120 C   0  0  0  0  0  0  0  0  0  0  0  0
  -18.2790   21.1170  -27.2430 C   0  0  0  0  0  0  0  0  0  0  0  0
  -16.8960   21.0610  -27.2710 C   0  0  0  0  0  0  0  0  0  0  0  0
  -16.0900   21.8430  -26.5180 N   0  0  0  0  0  0  0  0  0  0  0  0
  -16.7060   22.7230  -25.6970 C   0  0  0  0  0  0  0  0  0  0  0  0
  -18.0810   22.8560  -25.5940 C   0  0  0  0  0  0  0  0  0  0  0  0
  -18.8760   22.0350  -26.3850 C   0  0  0  0  0  0  0  0  0  0  0  0
  1 26  1  6  0  0  0
  1 12  1  0  0  0  0
  2 11  2  0  0  0  0
  2  3  1  0  0  0  0
  3  4  2  0  0  0  0
  4  5  1  0  0  0  0
  4 10  1  0  0  0  0
  5  6  1  0  0  0  0
  6  7  2  0  0  0  0
  7  1  1  0  0  0  0
  8  7  1  0  0  0  0
  9  5  2  0  0  0  0
 10  8  2  0  0  0  0
 11  9  1  0  0  0  0
 12 14  1  0  0  0  0
 12 13  1  0  0  0  0
 14 16  1  0  0  0  0
 15 14  2  0  0  0  0
 16 17  1  0  0  0  0
 17 18  1  0  0  0  0
 17 24  1  0  0  0  0
 18 20  1  0  0  0  0
 19 18  1  0  0  0  0
 20 21  2  0  0  0  0
 20 22  1  0  0  0  0
 23 22  2  0  0  0  0
 24 23  1  0  0  0  0
 25 24  2  0  0  0  0
 27 28  1  0  0  0  0
 27 26  1  0  0  0  0
 29 27  1  0  0  0  0
 30 29  2  0  0  0  0
 31 29  1  0  0  0  0
 31 32  1  0  0  0  0
 32 37  1  0  0  0  0
 33 32  2  0  0  0  0
 33 34  1  0  0  0  0
 34 35  2  0  0  0  0
 35 36  1  0  0  0  0
 37 36  2  0  0  0  0
M  END
>  <ADSCOR>
   -9.01

$$$$
35
 OpenBabel08042116023D

 35 38  0  0  1  0  0  0  0  0999 V2000
  -23.4500   14.3520  -19.6490 C   0  0  0  0  0  0  0  0  0  0  0  0
  -23.4840   15.6290  -20.2120 C   0  0  0  0  0  0  0  0  0  0  0  0
  -22.4020   16.0410  -20.9700 C   0  0  0  0  0  0  0  0  0  0  0  0
  -22.2290   17.3410  -21.6960 C   0  0  0  0  0  0  0  0  0  0  0  0
  -20.7090   17.3350  -21.9470 C   0  0  1  0  0  0  0  0  0  0  0  0
  -20.2840   15.8510  -22.0680 C   0  0  1  0  0  0  0  0  0  0  0  0
  -21.3050   15.1960  -21.1850 C   0  0  0  0  0  0  0  0  0  0  0  0
  -21.2680   13.9250  -20.6350 C   0  0  0  0  0  0  0  0  0  0  0  0
  -22.3500   13.5060  -19.8590 C   0  0  0  0  0  0  0  0  0  0  0  0
  -20.3350   18.1570  -23.0640 N   0  0  0  0  0  0  0  0  0  0  0  0
  -19.5020   18.7380  -22.9770 H   0  0  0  0  0  0  0  0  0  0  0  0
  -21.0470   18.2010  -24.2590 C   0  0  0  0  0  0  0  0  0  0  0  0
  -22.0630   17.5540  -24.4970 O   0  0  0  0  0  0  0  0  0  0  0  0
  -20.4200   19.1520  -25.2460 C   0  0  0  0  0  0  0  0  0  0  0  0
  -20.1980   18.4600  -26.5250 N   0  0  0  0  0  0  0  0  0  0  0  0
  -21.2470   17.7600  -27.0740 N   0  0  0  0  0  0  0  0  0  0  0  0
  -22.1240   17.7580  -26.5610 H   0  0  0  0  0  0  0  0  0  0  0  0
  -21.1310   17.0880  -28.2630 C   0  0  0  0  0  0  0  0  0  0  0  0
  -22.0480   16.4540  -28.7810 O   0  0  0  0  0  0  0  0  0  0  0  0
  -19.8150   17.1540  -28.9260 C   0  0  0  0  0  0  0  0  0  0  0  0
  -18.8070   17.8340  -28.3820 C   0  0  0  0  0  0  0  0  0  0  0  0
  -18.9620   18.5510  -27.0980 C   0  0  0  0  0  0  0  0  0  0  0  0
  -18.0000   19.1660  -26.6390 O   0  0  0  0  0  0  0  0  0  0  0  0
  -20.3460   15.3370  -23.4110 N   0  0  0  0  0  0  0  0  0  0  0  0
  -20.9530   15.8070  -24.0810 H   0  0  0  0  0  0  0  0  0  0  0  0
  -19.6210   14.2330  -23.8380 C   0  0  0  0  0  0  0  0  0  0  0  0
  -18.8550   13.5720  -23.1450 O   0  0  0  0  0  0  0  0  0  0  0  0
  -19.8750   13.9200  -25.2740 C   0  0  0  0  0  0  0  0  0  0  0  0
  -21.0840   14.1570  -25.8060 C   0  0  0  0  0  0  0  0  0  0  0  0
  -21.4450   13.8960  -27.2100 C   0  0  0  0  0  0  0  0  0  0  0  0
  -22.7620   13.6840  -27.5820 C   0  0  0  0  0  0  0  0  0  0  0  0
  -23.1610   13.4390  -28.8510 N   0  0  0  0  0  0  0  0  0  0  0  0
  -22.1890   13.4060  -29.7890 C   0  0  0  0  0  0  0  0  0  0  0  0
  -20.8450   13.6060  -29.5210 C   0  0  0  0  0  0  0  0  0  0  0  0
  -20.4730   13.8550  -28.2040 C   0  0  0  0  0  0  0  0  0  0  0  0
  2  1  2  0  0  0  0
  3  2  1  0  0  0  0
  4  3  1  0  0  0  0
  5 10  1  6  0  0  0
  5  4  1  0  0  0  0
  6 24  1  6  0  0  0
  6  5  1  0  0  0  0
  6  7  1  0  0  0  0
  7  3  2  0  0  0  0
  7  8  1  0  0  0  0
  8  9  2  0  0  0  0
  9  1  1  0  0  0  0
 10 11  1  0  0  0  0
 12 10  1  0  0  0  0
 13 12  2  0  0  0  0
 14 12  1  0  0  0  0
 15 14  1  0  0  0  0
 16 17  1  0  0  0  0
 16 15  1  0  0  0  0
 18 16  1  0  0  0  0
 19 18  2  0  0  0  0
 20 21  2  0  0  0  0
 20 18  1  0  0  0  0
 21 22  1  0  0  0  0
 22 23  2  0  0  0  0
 22 15  1  0  0  0  0
 25 24  1  0  0  0  0
 26 24  1  0  0  0  0
 26 27  2  0  0  0  0
 28 26  1  0  0  0  0
 29 28  2  0  0  0  0
 30 29  1  0  0  0  0
 31 30  1  0  0  0  0
 32 31  2  0  0  0  0
 33 34  2  0  0  0  0
 33 32  1  0  0  0  0
 34 35  1  0  0  0  0
 35 30  2  0  0  0  0
M  END
>  <ADSCOR>
   -7.33

$$$$
36
 OpenBabel08042116023D

 39 42  0  0  1  0  0  0  0  0999 V2000
  -22.9420   15.9700  -25.4750 C   0  0  1  0  0  0  0  0  0  0  0  0
  -22.5790   15.3310  -31.9510 C   0  0  0  0  0  0  0  0  0  0  0  0
  -22.5790   14.3710  -30.9390 C   0  0  0  0  0  0  0  0  0  0  0  0
  -22.6670   14.7520  -29.5900 C   0  0  0  0  0  0  0  0  0  0  0  0
  -22.7580   16.1260  -29.2650 C   0  0  0  0  0  0  0  0  0  0  0  0
  -22.8480   16.5080  -27.9160 C   0  0  0  0  0  0  0  0  0  0  0  0
  -22.8470   15.5480  -26.9030 C   0  0  0  0  0  0  0  0  0  0  0  0
  -22.7580   14.1960  -27.2240 C   0  0  0  0  0  0  0  0  0  0  0  0
  -22.7570   17.0790  -30.2960 C   0  0  0  0  0  0  0  0  0  0  0  0
  -22.6680   13.8000  -28.5590 C   0  0  0  0  0  0  0  0  0  0  0  0
  -22.6680   16.6820  -31.6310 C   0  0  0  0  0  0  0  0  0  0  0  0
  -21.8160   15.4480  -24.6730 N   0  0  0  0  0  0  0  0  0  0  0  0
  -22.0040   15.0640  -23.7680 H   0  0  0  0  0  0  0  0  0  0  0  0
  -20.5240   15.4740  -25.1270 C   0  0  0  0  0  0  0  0  0  0  0  0
  -20.1410   15.9110  -26.2090 O   0  0  0  0  0  0  0  0  0  0  0  0
  -19.5970   14.8810  -24.0980 C   0  0  0  0  0  0  0  0  0  0  0  0
  -20.2120   14.9740  -22.7660 N   0  0  0  0  0  0  0  0  0  0  0  0
  -20.3080   16.2160  -22.1830 N   0  0  0  0  0  0  0  0  0  0  0  0
  -19.9450   17.0070  -22.7060 H   0  0  0  0  0  0  0  0  0  0  0  0
  -20.8680   16.3980  -20.9440 C   0  0  0  0  0  0  0  0  0  0  0  0
  -20.9700   17.4930  -20.3950 O   0  0  0  0  0  0  0  0  0  0  0  0
  -21.3640   15.1850  -20.2670 C   0  0  0  0  0  0  0  0  0  0  0  0
  -21.2640   13.9870  -20.8420 C   0  0  0  0  0  0  0  0  0  0  0  0
  -20.6550   13.8220  -22.1800 C   0  0  0  0  0  0  0  0  0  0  0  0
  -20.5870   12.6950  -22.6690 O   0  0  0  0  0  0  0  0  0  0  0  0
  -23.0320   17.5020  -25.2730 C   0  0  0  0  0  0  0  0  0  0  0  0
  -21.7790   18.1500  -25.5630 N   0  0  0  0  0  0  0  0  0  0  0  0
  -21.4830   18.2180  -26.5350 H   0  0  0  0  0  0  0  0  0  0  0  0
  -20.9540   18.6840  -24.5830 C   0  0  0  0  0  0  0  0  0  0  0  0
  -21.1800   18.6730  -23.3780 O   0  0  0  0  0  0  0  0  0  0  0  0
  -19.7220   19.2920  -25.1620 C   0  0  0  0  0  0  0  0  0  0  0  0
  -19.5190   20.6140  -25.0630 C   0  0  0  0  0  0  0  0  0  0  0  0
  -18.3370   21.3210  -25.5880 C   0  0  0  0  0  0  0  0  0  0  0  0
  -18.0590   22.6440  -25.2670 C   0  0  0  0  0  0  0  0  0  0  0  0
  -18.9500   23.4340  -24.3650 C   0  0  0  0  0  0  0  0  0  0  0  0
  -16.9270   23.2590  -25.7940 C   0  0  0  0  0  0  0  0  0  0  0  0
  -16.1130   22.5110  -26.6290 C   0  0  0  0  0  0  0  0  0  0  0  0
  -16.3510   21.2230  -26.9630 N   0  0  0  0  0  0  0  0  0  0  0  0
  -17.4590   20.6600  -26.4330 C   0  0  0  0  0  0  0  0  0  0  0  0
  1 26  1  6  0  0  0
  1 12  1  0  0  0  0
  2 11  2  0  0  0  0
  2  3  1  0  0  0  0
  3  4  2  0  0  0  0
  4  5  1  0  0  0  0
  4 10  1  0  0  0  0
  5  6  1  0  0  0  0
  6  7  2  0  0  0  0
  7  1  1  0  0  0  0
  8  7  1  0  0  0  0
  9  5  2  0  0  0  0
 10  8  2  0  0  0  0
 11  9  1  0  0  0  0
 12 13  1  0  0  0  0
 14 12  1  0  0  0  0
 14 16  1  0  0  0  0
 15 14  2  0  0  0  0
 16 17  1  0  0  0  0
 17 18  1  0  0  0  0
 17 24  1  0  0  0  0
 18 20  1  0  0  0  0
 19 18  1  0  0  0  0
 20 21  2  0  0  0  0
 20 22  1  0  0  0  0
 23 22  2  0  0  0  0
 24 23  1  0  0  0  0
 25 24  2  0  0  0  0
 27 26  1  0  0  0  0
 27 29  1  0  0  0  0
 28 27  1  0  0  0  0
 29 30  2  0  0  0  0
 31 32  2  0  0  0  0
 31 29  1  0  0  0  0
 33 34  1  0  0  0  0
 33 32  1  0  0  0  0
 34 35  1  0  0  0  0
 36 34  2  0  0  0  0
 37 36  1  0  0  0  0
 38 37  2  0  0  0  0
 38 39  1  0  0  0  0
 39 33  2  0  0  0  0
M  END
>  <ADSCOR>
   -9.10

$$$$
37
 OpenBabel08042116023D

 35 38  0  0  1  0  0  0  0  0999 V2000
  -19.0910   13.9590  -29.5310 C   0  0  0  0  0  0  0  0  0  0  0  0
  -18.7530   15.2850  -29.2530 C   0  0  0  0  0  0  0  0  0  0  0  0
  -19.5690   16.0060  -28.3980 C   0  0  0  0  0  0  0  0  0  0  0  0
  -19.3900   17.4170  -27.9280 C   0  0  0  0  0  0  0  0  0  0  0  0
  -20.8000   17.7280  -27.3940 C   0  0  1  0  0  0  0  0  0  0  0  0
  -21.3930   16.3860  -26.8970 C   0  0  1  0  0  0  0  0  0  0  0  0
  -20.6990   15.4200  -27.8110 C   0  0  0  0  0  0  0  0  0  0  0  0
  -21.0370   14.1030  -28.0780 C   0  0  0  0  0  0  0  0  0  0  0  0
  -20.2260   13.3730  -28.9490 C   0  0  0  0  0  0  0  0  0  0  0  0
  -20.7960   18.7770  -26.4120 N   0  0  0  0  0  0  0  0  0  0  0  0
  -21.5270   19.4870  -26.4620 H   0  0  0  0  0  0  0  0  0  0  0  0
  -19.8490   18.8780  -25.3980 C   0  0  0  0  0  0  0  0  0  0  0  0
  -18.9190   18.0940  -25.2230 O   0  0  0  0  0  0  0  0  0  0  0  0
  -20.0950   20.0800  -24.5230 C   0  0  0  0  0  0  0  0  0  0  0  0
  -19.2220   21.1850  -24.9460 N   0  0  0  0  0  0  0  0  0  0  0  0
  -18.0680   20.8740  -25.6280 N   0  0  0  0  0  0  0  0  0  0  0  0
  -17.8810   19.8910  -25.8030 H   0  0  0  0  0  0  0  0  0  0  0  0
  -17.1970   21.8390  -26.0630 C   0  0  0  0  0  0  0  0  0  0  0  0
  -16.1600   21.5960  -26.6750 O   0  0  0  0  0  0  0  0  0  0  0  0
  -17.5620   23.2350  -25.7580 C   0  0  0  0  0  0  0  0  0  0  0  0
  -18.6810   23.5220  -25.0940 C   0  0  0  0  0  0  0  0  0  0  0  0
  -19.6040   22.4590  -24.6380 C   0  0  0  0  0  0  0  0  0  0  0  0
  -20.6250   22.7770  -24.0310 O   0  0  0  0  0  0  0  0  0  0  0  0
  -21.1060   16.0990  -25.5160 N   0  0  0  0  0  0  0  0  0  0  0  0
  -20.6850   16.8300  -24.9460 H   0  0  0  0  0  0  0  0  0  0  0  0
  -21.3780   14.8760  -24.9290 C   0  0  0  0  0  0  0  0  0  0  0  0
  -21.8810   13.9000  -25.4750 O   0  0  0  0  0  0  0  0  0  0  0  0
  -20.9920   14.8260  -23.5070 C   0  0  0  0  0  0  0  0  0  0  0  0
  -20.8480   13.6030  -22.9050 N   0  0  0  0  0  0  0  0  0  0  0  0
  -21.0050   12.7580  -23.4390 H   0  0  0  0  0  0  0  0  0  0  0  0
  -20.4910   13.5020  -21.5890 C   0  0  0  0  0  0  0  0  0  0  0  0
  -20.2610   14.5640  -20.8050 C   0  0  0  0  0  0  0  0  0  0  0  0
  -20.4080   15.9180  -21.4210 C   0  0  0  0  0  0  0  0  0  0  0  0
  -20.2160   16.9370  -20.7660 O   0  0  0  0  0  0  0  0  0  0  0  0
  -20.8000   15.9880  -22.8630 C   0  0  0  0  0  0  0  0  0  0  0  0
  1  2  2  0  0  0  0
  1  9  1  0  0  0  0
  2  3  1  0  0  0  0
  3  4  1  0  0  0  0
  3  7  2  0  0  0  0
  4  5  1  0  0  0  0
  5  6  1  0  0  0  0
  5 10  1  1  0  0  0
  6 24  1  1  0  0  0
  7  6  1  0  0  0  0
  8  7  1  0  0  0  0
  9  8  2  0  0  0  0
 10 12  1  0  0  0  0
 11 10  1  0  0  0  0
 12 13  2  0  0  0  0
 12 14  1  0  0  0  0
 15 22  1  0  0  0  0
 15 14  1  0  0  0  0
 16 15  1  0  0  0  0
 17 16  1  0  0  0  0
 18 20  1  0  0  0  0
 18 16  1  0  0  0  0
 19 18  2  0  0  0  0
 20 21  2  0  0  0  0
 21 22  1  0  0  0  0
 22 23  2  0  0  0  0
 24 25  1  0  0  0  0
 24 26  1  0  0  0  0
 26 28  1  0  0  0  0
 27 26  2  0  0  0  0
 28 29  1  0  0  0  0
 28 35  2  0  0  0  0
 29 31  1  0  0  0  0
 30 29  1  0  0  0  0
 31 32  2  0  0  0  0
 33 32  1  0  0  0  0
 33 34  2  0  0  0  0
 35 33  1  0  0  0  0
M  END
>  <ADSCOR>
   -7.94

$$$$
38
 OpenBabel08042116023D

 36 39  0  0  1  0  0  0  0  0999 V2000
  -20.6390   18.3820  -27.8380 C   0  0  1  0  0  0  0  0  0  0  0  0
  -21.7880   12.3160  -29.9270 C   0  0  0  0  0  0  0  0  0  0  0  0
  -20.6210   12.9080  -29.4440 C   0  0  0  0  0  0  0  0  0  0  0  0
  -20.6130   14.2550  -29.0470 C   0  0  0  0  0  0  0  0  0  0  0  0
  -21.8050   15.0120  -29.1390 C   0  0  0  0  0  0  0  0  0  0  0  0
  -21.7980   16.3590  -28.7400 C   0  0  0  0  0  0  0  0  0  0  0  0
  -20.6300   16.9500  -28.2570 C   0  0  0  0  0  0  0  0  0  0  0  0
  -19.4570   16.2070  -28.1660 C   0  0  0  0  0  0  0  0  0  0  0  0
  -22.9710   14.3990  -29.6270 C   0  0  0  0  0  0  0  0  0  0  0  0
  -19.4470   14.8680  -28.5570 C   0  0  0  0  0  0  0  0  0  0  0  0
  -22.9600   13.0600  -30.0190 C   0  0  0  0  0  0  0  0  0  0  0  0
  -20.4110   18.5290  -26.3850 N   0  0  0  0  0  0  0  0  0  0  0  0
  -19.8270   17.8690  -25.9120 H   0  0  0  0  0  0  0  0  0  0  0  0
  -20.9810   19.5500  -25.6720 C   0  0  0  0  0  0  0  0  0  0  0  0
  -21.7150   20.4270  -26.1220 O   0  0  0  0  0  0  0  0  0  0  0  0
  -20.5850   19.4580  -24.2120 C   0  0  0  0  0  0  0  0  0  0  0  0
  -21.1980   18.2810  -23.5000 C   0  0  0  0  0  0  0  0  0  0  0  0
  -22.3660   17.6960  -23.9610 C   0  0  0  0  0  0  0  0  0  0  0  0
  -22.9670   16.6390  -23.3700 N   0  0  0  0  0  0  0  0  0  0  0  0
  -22.3660   16.1480  -22.2630 C   0  0  0  0  0  0  0  0  0  0  0  0
  -21.1980   16.6610  -21.7230 C   0  0  0  0  0  0  0  0  0  0  0  0
  -20.6530   16.1280  -20.6230 F   0  0  0  0  0  0  0  0  0  0  0  0
  -20.6090   17.7490  -22.3590 C   0  0  0  0  0  0  0  0  0  0  0  0
  -19.6230   19.2700  -28.5960 C   0  0  0  0  0  0  0  0  0  0  0  0
  -18.9420   20.1750  -27.7070 N   0  0  0  0  0  0  0  0  0  0  0  0
  -18.5260   19.8000  -26.8560 H   0  0  0  0  0  0  0  0  0  0  0  0
  -18.8260   21.5310  -27.9570 C   0  0  0  0  0  0  0  0  0  0  0  0
  -19.2660   22.1350  -28.9290 O   0  0  0  0  0  0  0  0  0  0  0  0
  -18.0880   22.2460  -26.8990 C   0  0  0  0  0  0  0  0  0  0  0  0
  -16.7820   21.9780  -26.7600 C   0  0  0  0  0  0  0  0  0  0  0  0
  -16.0010   22.6840  -25.6970 C   0  0  0  0  0  0  0  0  0  0  0  0
  -14.8040   22.4530  -25.5520 O   0  0  0  0  0  0  0  0  0  0  0  0
  -16.7190   23.5840  -24.9250 N   0  0  0  0  0  0  0  0  0  0  0  0
  -16.2380   24.0930  -24.1890 H   0  0  0  0  0  0  0  0  0  0  0  0
  -18.0580   23.8330  -25.0990 C   0  0  0  0  0  0  0  0  0  0  0  0
  -18.7560   23.2020  -26.0490 C   0  0  0  0  0  0  0  0  0  0  0  0
  1 24  1  6  0  0  0
  1 12  1  0  0  0  0
  2  3  1  0  0  0  0
  3  4  2  0  0  0  0
  4 10  1  0  0  0  0
  5  4  1  0  0  0  0
  5  6  1  0  0  0  0
  6  7  2  0  0  0  0
  7  8  1  0  0  0  0
  7  1  1  0  0  0  0
  9  5  2  0  0  0  0
 10  8  2  0  0  0  0
 11  2  2  0  0  0  0
 11  9  1  0  0  0  0
 12 13  1  0  0  0  0
 12 14  1  0  0  0  0
 14 16  1  0  0  0  0
 15 14  2  0  0  0  0
 16 17  1  0  0  0  0
 17 23  1  0  0  0  0
 18 17  2  0  0  0  0
 18 19  1  0  0  0  0
 19 20  2  0  0  0  0
 20 21  1  0  0  0  0
 21 22  1  0  0  0  0
 23 21  2  0  0  0  0
 24 25  1  0  0  0  0
 25 26  1  0  0  0  0
 27 25  1  0  0  0  0
 27 29  1  0  0  0  0
 28 27  2  0  0  0  0
 29 30  2  0  0  0  0
 29 36  1  0  0  0  0
 30 31  1  0  0  0  0
 31 32  2  0  0  0  0
 31 33  1  0  0  0  0
 33 34  1  0  0  0  0
 35 33  1  0  0  0  0
 36 35  2  0  0  0  0
M  END
>  <ADSCOR>
   -8.65

$$$$
39
 OpenBabel08042116023D

 38 41  0  0  1  0  0  0  0  0999 V2000
  -22.6820   12.5370  -29.9900 C   0  0  0  0  0  0  0  0  0  0  0  0
  -23.2980   13.2870  -28.9890 C   0  0  0  0  0  0  0  0  0  0  0  0
  -22.5360   13.8970  -27.9810 C   0  0  0  0  0  0  0  0  0  0  0  0
  -23.2370   14.6580  -26.8890 C   0  0  0  0  0  0  0  0  0  0  0  0
  -22.3090   15.6170  -26.1540 C   0  0  0  0  0  0  0  0  0  0  0  0
  -21.0620   14.9420  -25.7720 N   0  0  0  0  0  0  0  0  0  0  0  0
  -20.2790   14.3660  -26.8880 C   0  0  1  0  0  0  0  0  0  0  0  0
  -20.5350   14.8670  -24.4810 C   0  0  0  0  0  0  0  0  0  0  0  0
  -19.4850   14.2920  -24.1880 O   0  0  0  0  0  0  0  0  0  0  0  0
  -21.1400   13.7380  -27.9700 C   0  0  0  0  0  0  0  0  0  0  0  0
  -20.5340   12.9710  -28.9800 C   0  0  0  0  0  0  0  0  0  0  0  0
  -21.3000   12.3780  -29.9840 C   0  0  0  0  0  0  0  0  0  0  0  0
  -21.2790   15.5170  -23.3860 C   0  0  0  0  0  0  0  0  0  0  0  0
  -20.6390   16.4000  -22.6120 C   0  0  0  0  0  0  0  0  0  0  0  0
  -21.2700   17.0870  -21.5200 C   0  0  0  0  0  0  0  0  0  0  0  0
  -22.7450   17.0360  -21.3640 C   0  0  0  0  0  0  0  0  0  0  0  0
  -23.4720   16.4220  -22.1390 O   0  0  0  0  0  0  0  0  0  0  0  0
  -23.2100   17.7410  -20.2690 N   0  0  0  0  0  0  0  0  0  0  0  0
  -24.2120   17.7500  -20.1010 H   0  0  0  0  0  0  0  0  0  0  0  0
  -22.3680   18.4220  -19.4140 C   0  0  0  0  0  0  0  0  0  0  0  0
  -21.0790   18.4700  -19.5480 N   0  0  0  0  0  0  0  0  0  0  0  0
  -23.0380   19.1380  -18.2760 C   0  0  0  0  0  0  0  0  0  0  0  0
  -20.5620   17.7860  -20.6200 C   0  0  0  0  0  0  0  0  0  0  0  0
  -19.3410   15.4370  -27.4640 C   0  0  0  0  0  0  0  0  0  0  0  0
  -19.9730   16.7090  -27.3920 N   0  0  0  0  0  0  0  0  0  0  0  0
  -20.7200   16.9140  -28.0670 H   0  0  0  0  0  0  0  0  0  0  0  0
  -19.6400   17.6990  -26.4600 C   0  0  0  0  0  0  0  0  0  0  0  0
  -18.7680   17.5810  -25.6020 O   0  0  0  0  0  0  0  0  0  0  0  0
  -20.4740   18.9430  -26.6270 C   0  0  0  0  0  0  0  0  0  0  0  0
  -19.6300   20.0420  -27.1160 N   0  0  0  0  0  0  0  0  0  0  0  0
  -19.8890   20.5500  -28.3680 N   0  0  0  0  0  0  0  0  0  0  0  0
  -20.6540   20.1340  -28.8910 H   0  0  0  0  0  0  0  0  0  0  0  0
  -19.1540   21.5770  -28.9040 C   0  0  0  0  0  0  0  0  0  0  0  0
  -19.3590   22.0540  -30.0180 O   0  0  0  0  0  0  0  0  0  0  0  0
  -18.0650   22.1080  -28.0630 C   0  0  0  0  0  0  0  0  0  0  0  0
  -17.8240   21.6070  -26.8540 C   0  0  0  0  0  0  0  0  0  0  0  0
  -18.6340   20.5000  -26.3010 C   0  0  0  0  0  0  0  0  0  0  0  0
  -18.3710   20.0730  -25.1780 O   0  0  0  0  0  0  0  0  0  0  0  0
  1 12  2  0  0  0  0
  1  2  1  0  0  0  0
  2  3  2  0  0  0  0
  3 10  1  0  0  0  0
  3  4  1  0  0  0  0
  4  5  1  0  0  0  0
  5  6  1  0  0  0  0
  6  8  1  0  0  0  0
  7 24  1  6  0  0  0
  7  6  1  0  0  0  0
  8  9  2  0  0  0  0
  8 13  1  0  0  0  0
 10  7  1  0  0  0  0
 11 10  2  0  0  0  0
 12 11  1  0  0  0  0
 13 14  2  0  0  0  0
 14 15  1  0  0  0  0
 15 16  1  0  0  0  0
 15 23  2  0  0  0  0
 16 18  1  0  0  0  0
 17 16  2  0  0  0  0
 18 19  1  0  0  0  0
 18 20  1  0  0  0  0
 20 22  1  0  0  0  0
 21 20  2  0  0  0  0
 23 21  1  0  0  0  0
 24 25  1  0  0  0  0
 25 27  1  0  0  0  0
 26 25  1  0  0  0  0
 27 28  2  0  0  0  0
 29 27  1  0  0  0  0
 30 29  1  0  0  0  0
 30 37  1  0  0  0  0
 31 30  1  0  0  0  0
 32 31  1  0  0  0  0
 33 31  1  0  0  0  0
 33 35  1  0  0  0  0
 34 33  2  0  0  0  0
 35 36  2  0  0  0  0
 36 37  1  0  0  0  0
 37 38  2  0  0  0  0
M  END
>  <ADSCOR>
   -9.10

$$$$
4
 OpenBabel08042116023D

 37 39  0  0  1  0  0  0  0  0999 V2000
  -22.8470   16.3690  -32.1710 C   0  0  1  0  0  0  0  0  0  0  0  0
  -26.2730   18.9670  -32.4680 C   0  0  0  0  0  0  0  0  0  0  0  0
  -26.4490   17.6050  -32.2200 C   0  0  0  0  0  0  0  0  0  0  0  0
  -25.3400   16.7640  -32.1230 C   0  0  0  0  0  0  0  0  0  0  0  0
  -24.0540   17.2850  -32.2760 C   0  0  0  0  0  0  0  0  0  0  0  0
  -23.8790   18.6460  -32.5240 C   0  0  0  0  0  0  0  0  0  0  0  0
  -24.9880   19.4880  -32.6200 C   0  0  0  0  0  0  0  0  0  0  0  0
  -21.7440   17.0400  -31.4720 N   0  0  0  0  0  0  0  0  0  0  0  0
  -20.9150   17.2180  -32.0100 H   0  0  0  0  0  0  0  0  0  0  0  0
  -21.8660   17.4340  -30.1630 C   0  0  0  0  0  0  0  0  0  0  0  0
  -22.8520   17.2870  -29.4490 O   0  0  0  0  0  0  0  0  0  0  0  0
  -20.6190   18.0920  -29.6850 C   0  0  0  0  0  0  0  0  0  0  0  0
  -20.6900   19.1790  -28.9050 C   0  0  0  0  0  0  0  0  0  0  0  0
  -19.5290   19.8640  -28.4100 C   0  0  0  0  0  0  0  0  0  0  0  0
  -19.2070   21.2290  -28.9040 C   0  0  0  0  0  0  0  0  0  0  0  0
  -19.8980   21.8150  -29.7300 O   0  0  0  0  0  0  0  0  0  0  0  0
  -18.0620   21.7620  -28.3410 N   0  0  0  0  0  0  0  0  0  0  0  0
  -17.7680   22.6930  -28.6230 H   0  0  0  0  0  0  0  0  0  0  0  0
  -17.3110   21.0730  -27.4160 C   0  0  0  0  0  0  0  0  0  0  0  0
  -17.5800   19.8870  -26.9800 N   0  0  0  0  0  0  0  0  0  0  0  0
  -18.7100   19.3070  -27.5050 C   0  0  0  0  0  0  0  0  0  0  0  0
  -23.1620   15.0280  -31.4910 C   0  0  0  0  0  0  0  0  0  0  0  0
  -22.1630   14.6680  -30.5100 N   0  0  0  0  0  0  0  0  0  0  0  0
  -21.6820   15.4130  -30.0150 H   0  0  0  0  0  0  0  0  0  0  0  0
  -21.8290   13.3550  -30.2100 C   0  0  0  0  0  0  0  0  0  0  0  0
  -22.3300   12.3610  -30.7290 O   0  0  0  0  0  0  0  0  0  0  0  0
  -20.7560   13.2880  -29.1540 C   0  0  0  0  0  0  0  0  0  0  0  0
  -21.0050   14.3060  -28.1370 N   0  0  0  0  0  0  0  0  0  0  0  0
  -22.2690   14.4200  -27.5430 C   0  0  0  0  0  0  0  0  0  0  0  0
  -23.2330   13.7040  -27.8150 O   0  0  0  0  0  0  0  0  0  0  0  0
  -22.4200   15.5050  -26.5030 C   0  0  0  0  0  0  0  0  0  0  0  0
  -21.3560   16.2730  -26.2210 C   0  0  0  0  0  0  0  0  0  0  0  0
  -20.0910   16.0940  -26.8760 C   0  0  0  0  0  0  0  0  0  0  0  0
  -19.9530   15.1350  -27.7970 C   0  0  0  0  0  0  0  0  0  0  0  0
  -23.6470   15.6220  -25.9190 N   0  0  0  0  0  0  0  0  0  0  0  0
  -23.7530   16.2520  -25.1520 H   0  0  0  0  0  0  0  0  0  0  0  0
  -24.4000   15.0760  -26.2760 H   0  0  0  0  0  0  0  0  0  0  0  0
  1 22  1  1  0  0  0
  1  8  1  0  0  0  0
  2  3  2  0  0  0  0
  3  4  1  0  0  0  0
  5  1  1  0  0  0  0
  5  4  2  0  0  0  0
  6  5  1  0  0  0  0
  7  6  2  0  0  0  0
  7  2  1  0  0  0  0
  8 10  1  0  0  0  0
  9  8  1  0  0  0  0
 10 12  1  0  0  0  0
 10 11  2  0  0  0  0
 12 13  2  0  0  0  0
 13 14  1  0  0  0  0
 14 21  2  0  0  0  0
 15 14  1  0  0  0  0
 15 17  1  0  0  0  0
 16 15  2  0  0  0  0
 17 19  1  0  0  0  0
 18 17  1  0  0  0  0
 19 20  2  0  0  0  0
 21 20  1  0  0  0  0
 22 23  1  0  0  0  0
 23 25  1  0  0  0  0
 23 24  1  0  0  0  0
 25 27  1  0  0  0  0
 26 25  2  0  0  0  0
 27 28  1  0  0  0  0
 28 34  1  0  0  0  0
 28 29  1  0  0  0  0
 29 31  1  0  0  0  0
 30 29  2  0  0  0  0
 31 32  2  0  0  0  0
 31 35  1  0  0  0  0
 33 32  1  0  0  0  0
 34 33  2  0  0  0  0
 35 36  1  0  0  0  0
 37 35  1  0  0  0  0
M  END
>  <ADSCOR>
   -7.48

$$$$
40
 OpenBabel08042116023D

 38 41  0  0  1  0  0  0  0  0999 V2000
  -20.2200   18.2240  -28.1060 C   0  0  1  0  0  0  0  0  0  0  0  0
  -16.9570   23.1980  -25.4430 C   0  0  0  0  0  0  0  0  0  0  0  0
  -18.2380   22.7090  -25.1900 C   0  0  0  0  0  0  0  0  0  0  0  0
  -18.7370   21.6060  -25.9020 C   0  0  0  0  0  0  0  0  0  0  0  0
  -17.9240   20.9900  -26.8830 C   0  0  0  0  0  0  0  0  0  0  0  0
  -18.4230   19.8860  -27.5940 C   0  0  0  0  0  0  0  0  0  0  0  0
  -19.7050   19.3970  -27.3420 C   0  0  0  0  0  0  0  0  0  0  0  0
  -20.5050   20.0030  -26.3760 C   0  0  0  0  0  0  0  0  0  0  0  0
  -16.6370   21.4960  -27.1240 C   0  0  0  0  0  0  0  0  0  0  0  0
  -20.0250   21.1000  -25.6610 C   0  0  0  0  0  0  0  0  0  0  0  0
  -16.1570   22.5930  -26.4080 C   0  0  0  0  0  0  0  0  0  0  0  0
  -20.9590   17.2840  -27.2360 N   0  0  0  0  0  0  0  0  0  0  0  0
  -21.8910   17.0220  -27.4890 H   0  0  0  0  0  0  0  0  0  0  0  0
  -20.4090   16.7630  -26.0960 C   0  0  0  0  0  0  0  0  0  0  0  0
  -19.2840   16.9900  -25.6600 O   0  0  0  0  0  0  0  0  0  0  0  0
  -21.3920   15.8440  -25.4170 C   0  0  0  0  0  0  0  0  0  0  0  0
  -20.8770   15.4600  -24.0940 N   0  0  0  0  0  0  0  0  0  0  0  0
  -19.5840   14.9940  -24.0130 N   0  0  0  0  0  0  0  0  0  0  0  0
  -19.0530   14.9400  -24.8770 H   0  0  0  0  0  0  0  0  0  0  0  0
  -19.0210   14.6150  -22.8220 C   0  0  0  0  0  0  0  0  0  0  0  0
  -17.8700   14.1960  -22.7150 O   0  0  0  0  0  0  0  0  0  0  0  0
  -19.8770   14.7320  -21.6270 C   0  0  0  0  0  0  0  0  0  0  0  0
  -21.1280   15.1830  -21.7190 C   0  0  0  0  0  0  0  0  0  0  0  0
  -21.7080   15.5850  -23.0180 C   0  0  0  0  0  0  0  0  0  0  0  0
  -22.8680   15.9960  -23.0510 O   0  0  0  0  0  0  0  0  0  0  0  0
  -21.1150   18.5970  -29.3120 C   0  0  0  0  0  0  0  0  0  0  0  0
  -21.9580   17.4990  -29.7070 N   0  0  0  0  0  0  0  0  0  0  0  0
  -22.4260   16.9580  -28.9830 H   0  0  0  0  0  0  0  0  0  0  0  0
  -22.1600   17.1460  -31.0370 C   0  0  0  0  0  0  0  0  0  0  0  0
  -21.6540   17.7180  -31.9990 O   0  0  0  0  0  0  0  0  0  0  0  0
  -23.0880   15.9530  -31.1650 C   0  0  0  0  0  0  0  0  0  0  0  0
  -22.5480   14.7070  -30.5140 C   0  0  0  0  0  0  0  0  0  0  0  0
  -23.2460   13.5110  -30.5710 C   0  0  0  0  0  0  0  0  0  0  0  0
  -22.8180   12.3570  -30.0090 N   0  0  0  0  0  0  0  0  0  0  0  0
  -21.6320   12.4090  -29.3610 C   0  0  0  0  0  0  0  0  0  0  0  0
  -20.8590   13.5530  -29.2480 C   0  0  0  0  0  0  0  0  0  0  0  0
  -19.5630   13.5350  -28.5190 C   0  0  0  0  0  0  0  0  0  0  0  0
  -21.3330   14.7200  -29.8380 C   0  0  0  0  0  0  0  0  0  0  0  0
  1 26  1  6  0  0  0
  1  7  1  0  0  0  0
  1 12  1  0  0  0  0
  2  3  1  0  0  0  0
  4 10  1  0  0  0  0
  4  3  2  0  0  0  0
  5  4  1  0  0  0  0
  6  7  2  0  0  0  0
  6  5  1  0  0  0  0
  7  8  1  0  0  0  0
  8 10  2  0  0  0  0
  9  5  2  0  0  0  0
  9 11  1  0  0  0  0
 11  2  2  0  0  0  0
 12 14  1  0  0  0  0
 13 12  1  0  0  0  0
 14 15  2  0  0  0  0
 14 16  1  0  0  0  0
 16 17  1  0  0  0  0
 17 18  1  0  0  0  0
 17 24  1  0  0  0  0
 18 20  1  0  0  0  0
 19 18  1  0  0  0  0
 20 21  2  0  0  0  0
 20 22  1  0  0  0  0
 23 22  2  0  0  0  0
 24 23  1  0  0  0  0
 25 24  2  0  0  0  0
 27 26  1  0  0  0  0
 27 28  1  0  0  0  0
 29 27  1  0  0  0  0
 30 29  2  0  0  0  0
 31 29  1  0  0  0  0
 31 32  1  0  0  0  0
 32 38  1  0  0  0  0
 33 32  2  0  0  0  0
 33 34  1  0  0  0  0
 34 35  2  0  0  0  0
 35 36  1  0  0  0  0
 36 37  1  0  0  0  0
 38 36  2  0  0  0  0
M  END
>  <ADSCOR>
   -9.04

$$$$
41
 OpenBabel08042116023D

 36 39  0  0  1  0  0  0  0  0999 V2000
  -20.3410   15.9080  -27.4030 C   0  0  1  0  0  0  0  0  0  0  0  0
  -21.9750   12.8400  -29.9480 C   0  0  0  0  0  0  0  0  0  0  0  0
  -22.8160   13.7980  -29.3820 C   0  0  0  0  0  0  0  0  0  0  0  0
  -22.2870   14.7910  -28.5580 C   0  0  0  0  0  0  0  0  0  0  0  0
  -20.9160   14.8270  -28.3010 C   0  0  0  0  0  0  0  0  0  0  0  0
  -20.0760   13.8680  -28.8660 C   0  0  0  0  0  0  0  0  0  0  0  0
  -20.6050   12.8750  -29.6900 C   0  0  0  0  0  0  0  0  0  0  0  0
  -19.7250   15.3200  -26.2080 N   0  0  0  0  0  0  0  0  0  0  0  0
  -18.8030   15.6220  -25.9420 H   0  0  0  0  0  0  0  0  0  0  0  0
  -20.3590   14.3720  -25.4400 C   0  0  0  0  0  0  0  0  0  0  0  0
  -21.4790   13.9110  -25.6410 O   0  0  0  0  0  0  0  0  0  0  0  0
  -19.4850   13.9540  -24.2850 C   0  0  0  0  0  0  0  0  0  0  0  0
  -20.0180   14.5130  -23.0340 N   0  0  0  0  0  0  0  0  0  0  0  0
  -19.9140   15.8710  -22.8360 N   0  0  0  0  0  0  0  0  0  0  0  0
  -19.4710   16.4160  -23.5690 H   0  0  0  0  0  0  0  0  0  0  0  0
  -20.3850   16.4790  -21.7020 C   0  0  0  0  0  0  0  0  0  0  0  0
  -20.3090   17.6880  -21.4940 O   0  0  0  0  0  0  0  0  0  0  0  0
  -21.0110   15.5960  -20.6990 C   0  0  0  0  0  0  0  0  0  0  0  0
  -21.1040   14.2830  -20.9030 C   0  0  0  0  0  0  0  0  0  0  0  0
  -20.5880   13.6540  -22.1380 C   0  0  0  0  0  0  0  0  0  0  0  0
  -20.6990   12.4370  -22.2780 O   0  0  0  0  0  0  0  0  0  0  0  0
  -19.3320   16.8180  -28.1210 C   0  0  0  0  0  0  0  0  0  0  0  0
  -19.3180   18.1550  -27.5710 N   0  0  0  0  0  0  0  0  0  0  0  0
  -19.5330   18.9160  -28.2060 H   0  0  0  0  0  0  0  0  0  0  0  0
  -19.1100   18.4360  -26.2140 C   0  0  0  0  0  0  0  0  0  0  0  0
  -18.9180   17.5370  -25.3720 O   0  0  0  0  0  0  0  0  0  0  0  0
  -19.1490   19.8280  -25.8130 C   0  0  0  0  0  0  0  0  0  0  0  0
  -18.3210   20.8000  -26.3920 C   0  0  0  0  0  0  0  0  0  0  0  0
  -18.4260   22.1190  -25.9480 C   0  0  0  0  0  0  0  0  0  0  0  0
  -17.5180   22.8650  -26.6630 N   0  0  0  0  0  0  0  0  0  0  0  0
  -17.3710   23.8590  -26.5540 H   0  0  0  0  0  0  0  0  0  0  0  0
  -16.8420   22.0630  -27.5440 C   0  0  0  0  0  0  0  0  0  0  0  0
  -19.3230   22.4940  -24.9560 C   0  0  0  0  0  0  0  0  0  0  0  0
  -20.1220   21.5540  -24.3990 N   0  0  0  0  0  0  0  0  0  0  0  0
  -17.3170   20.7800  -27.4000 C   0  0  0  0  0  0  0  0  0  0  0  0
  -20.0210   20.2750  -24.8290 C   0  0  0  0  0  0  0  0  0  0  0  0
  1 22  1  6  0  0  0
  1  8  1  0  0  0  0
  2  7  2  0  0  0  0
  2  3  1  0  0  0  0
  3  4  2  0  0  0  0
  4  5  1  0  0  0  0
  5  1  1  0  0  0  0
  6  5  2  0  0  0  0
  7  6  1  0  0  0  0
  8  9  1  0  0  0  0
  8 10  1  0  0  0  0
 10 12  1  0  0  0  0
 11 10  2  0  0  0  0
 12 13  1  0  0  0  0
 13 14  1  0  0  0  0
 13 20  1  0  0  0  0
 14 16  1  0  0  0  0
 15 14  1  0  0  0  0
 16 17  2  0  0  0  0
 16 18  1  0  0  0  0
 19 18  2  0  0  0  0
 20 19  1  0  0  0  0
 21 20  2  0  0  0  0
 22 23  1  0  0  0  0
 23 25  1  0  0  0  0
 24 23  1  0  0  0  0
 25 27  1  0  0  0  0
 25 26  2  0  0  0  0
 27 36  2  0  0  0  0
 28 29  2  0  0  0  0
 28 27  1  0  0  0  0
 29 33  1  0  0  0  0
 30 31  1  0  0  0  0
 30 29  1  0  0  0  0
 32 35  2  0  0  0  0
 32 30  1  0  0  0  0
 33 34  2  0  0  0  0
 35 28  1  0  0  0  0
 36 34  1  0  0  0  0
M  END
>  <ADSCOR>
   -8.80

$$$$
42
 OpenBabel08042116023D

 40 43  0  0  1  0  0  0  0  0999 V2000
  -20.9210   16.6490  -25.8630 C   0  0  1  0  0  0  0  0  0  0  0  0
  -19.5400   13.4970  -20.3290 C   0  0  0  0  0  0  0  0  0  0  0  0
  -20.7410   14.0260  -20.8010 C   0  0  0  0  0  0  0  0  0  0  0  0
  -20.7970   14.6750  -22.0450 C   0  0  0  0  0  0  0  0  0  0  0  0
  -19.6200   14.7870  -22.8220 C   0  0  0  0  0  0  0  0  0  0  0  0
  -19.6770   15.4350  -24.0670 C   0  0  0  0  0  0  0  0  0  0  0  0
  -20.8780   15.9640  -24.5390 C   0  0  0  0  0  0  0  0  0  0  0  0
  -22.0370   15.8540  -23.7750 C   0  0  0  0  0  0  0  0  0  0  0  0
  -18.4200   14.2470  -22.3310 C   0  0  0  0  0  0  0  0  0  0  0  0
  -21.9980   15.2140  -22.5370 C   0  0  0  0  0  0  0  0  0  0  0  0
  -18.3820   13.6070  -21.0920 C   0  0  0  0  0  0  0  0  0  0  0  0
  -20.2810   17.9800  -25.8130 N   0  0  0  0  0  0  0  0  0  0  0  0
  -19.4660   18.0530  -25.2350 H   0  0  0  0  0  0  0  0  0  0  0  0
  -20.7650   19.0220  -26.5530 C   0  0  0  0  0  0  0  0  0  0  0  0
  -21.7320   18.9980  -27.3070 O   0  0  0  0  0  0  0  0  0  0  0  0
  -19.9490   20.2480  -26.3330 C   0  0  0  0  0  0  0  0  0  0  0  0
  -18.6160   20.1590  -26.2430 C   0  0  0  0  0  0  0  0  0  0  0  0
  -17.7670   21.2990  -26.0310 C   0  0  0  0  0  0  0  0  0  0  0  0
  -18.1680   22.3530  -25.0630 C   0  0  0  0  0  0  0  0  0  0  0  0
  -19.2110   22.2990  -24.4190 O   0  0  0  0  0  0  0  0  0  0  0  0
  -17.2560   23.3860  -24.9650 N   0  0  0  0  0  0  0  0  0  0  0  0
  -17.4520   24.1510  -24.3250 H   0  0  0  0  0  0  0  0  0  0  0  0
  -16.0950   23.4120  -25.7040 C   0  0  0  0  0  0  0  0  0  0  0  0
  -15.7370   22.5020  -26.5480 N   0  0  0  0  0  0  0  0  0  0  0  0
  -16.6060   21.4480  -26.6870 C   0  0  0  0  0  0  0  0  0  0  0  0
  -20.2900   15.8350  -27.0180 C   0  0  0  0  0  0  0  0  0  0  0  0
  -21.2920   15.1670  -27.8070 N   0  0  0  0  0  0  0  0  0  0  0  0
  -21.3800   15.4170  -28.7900 H   0  0  0  0  0  0  0  0  0  0  0  0
  -22.1440   14.1990  -27.2930 C   0  0  0  0  0  0  0  0  0  0  0  0
  -22.1440   13.8060  -26.1280 O   0  0  0  0  0  0  0  0  0  0  0  0
  -23.1120   13.6510  -28.3240 C   0  0  0  0  0  0  0  0  0  0  0  0
  -23.0700   14.5080  -29.5400 C   0  0  0  0  0  0  0  0  0  0  0  0
  -22.4910   13.9380  -30.7890 C   0  0  0  0  0  0  0  0  0  0  0  0
  -22.0540   12.7930  -30.8370 O   0  0  0  0  0  0  0  0  0  0  0  0
  -22.4990   14.8130  -31.8590 N   0  0  0  0  0  0  0  0  0  0  0  0
  -22.1210   14.4990  -32.7480 H   0  0  0  0  0  0  0  0  0  0  0  0
  -23.0000   16.0930  -31.7660 C   0  0  0  0  0  0  0  0  0  0  0  0
  -23.5060   16.5980  -30.6850 N   0  0  0  0  0  0  0  0  0  0  0  0
  -22.9330   16.9110  -33.0240 C   0  0  0  0  0  0  0  0  0  0  0  0
  -23.5230   15.7710  -29.5900 C   0  0  0  0  0  0  0  0  0  0  0  0
  1 26  1  6  0  0  0
  1 12  1  0  0  0  0
  1  7  1  0  0  0  0
  3  2  1  0  0  0  0
  4  3  2  0  0  0  0
  5  9  2  0  0  0  0
  5  4  1  0  0  0  0
  6  5  1  0  0  0  0
  7  6  2  0  0  0  0
  7  8  1  0  0  0  0
  8 10  2  0  0  0  0
  9 11  1  0  0  0  0
 10  4  1  0  0  0  0
 11  2  2  0  0  0  0
 12 13  1  0  0  0  0
 14 16  1  0  0  0  0
 14 12  1  0  0  0  0
 15 14  2  0  0  0  0
 16 17  2  0  0  0  0
 17 18  1  0  0  0  0
 18 19  1  0  0  0  0
 19 21  1  0  0  0  0
 19 20  2  0  0  0  0
 21 22  1  0  0  0  0
 23 21  1  0  0  0  0
 24 23  2  0  0  0  0
 25 24  1  0  0  0  0
 25 18  2  0  0  0  0
 27 29  1  0  0  0  0
 27 26  1  0  0  0  0
 28 27  1  0  0  0  0
 29 30  2  0  0  0  0
 31 29  1  0  0  0  0
 32 31  1  0  0  0  0
 33 32  1  0  0  0  0
 34 33  2  0  0  0  0
 35 37  1  0  0  0  0
 35 33  1  0  0  0  0
 36 35  1  0  0  0  0
 37 38  2  0  0  0  0
 38 40  1  0  0  0  0
 39 37  1  0  0  0  0
 40 32  2  0  0  0  0
M  END
>  <ADSCOR>
   -8.98

$$$$
43
 OpenBabel08042116023D

 36 39  0  0  1  0  0  0  0  0999 V2000
  -19.4100   13.7780  -21.6170 C   0  0  0  0  0  0  0  0  0  0  0  0
  -19.0960   13.8860  -22.9730 C   0  0  0  0  0  0  0  0  0  0  0  0
  -19.6700   14.9160  -23.6990 C   0  0  0  0  0  0  0  0  0  0  0  0
  -19.4570   15.2520  -25.1440 C   0  0  0  0  0  0  0  0  0  0  0  0
  -20.6640   16.1730  -25.4100 C   0  0  1  0  0  0  0  0  0  0  0  0
  -20.9880   16.8790  -24.0710 C   0  0  1  0  0  0  0  0  0  0  0  0
  -20.5310   15.8390  -23.0900 C   0  0  0  0  0  0  0  0  0  0  0  0
  -20.8410   15.7410  -21.7440 C   0  0  0  0  0  0  0  0  0  0  0  0
  -20.2770   14.6980  -21.0070 C   0  0  0  0  0  0  0  0  0  0  0  0
  -20.4410   17.0630  -26.5150 N   0  0  0  0  0  0  0  0  0  0  0  0
  -20.6610   18.0500  -26.3870 H   0  0  0  0  0  0  0  0  0  0  0  0
  -19.9030   16.6330  -27.7200 C   0  0  0  0  0  0  0  0  0  0  0  0
  -19.5660   15.4810  -27.9740 O   0  0  0  0  0  0  0  0  0  0  0  0
  -19.7660   17.7440  -28.7030 C   0  0  0  0  0  0  0  0  0  0  0  0
  -20.8560   18.2670  -29.2780 C   0  0  0  0  0  0  0  0  0  0  0  0
  -20.7980   19.3390  -30.2330 C   0  0  0  0  0  0  0  0  0  0  0  0
  -21.4000   19.1660  -31.5800 C   0  0  0  0  0  0  0  0  0  0  0  0
  -21.9590   18.1310  -31.9260 O   0  0  0  0  0  0  0  0  0  0  0  0
  -21.2670   20.2790  -32.3900 N   0  0  0  0  0  0  0  0  0  0  0  0
  -21.6570   20.2310  -33.3270 H   0  0  0  0  0  0  0  0  0  0  0  0
  -20.6330   21.4300  -31.9730 C   0  0  0  0  0  0  0  0  0  0  0  0
  -20.1050   21.5830  -30.7980 N   0  0  0  0  0  0  0  0  0  0  0  0
  -20.5770   22.5420  -32.9790 C   0  0  0  0  0  0  0  0  0  0  0  0
  -20.2080   20.5090  -29.9490 C   0  0  0  0  0  0  0  0  0  0  0  0
  -20.2850   18.1200  -23.8830 N   0  0  0  0  0  0  0  0  0  0  0  0
  -19.4430   18.1160  -23.3100 H   0  0  0  0  0  0  0  0  0  0  0  0
  -20.6940   19.3260  -24.4440 C   0  0  0  0  0  0  0  0  0  0  0  0
  -21.6860   19.4720  -25.1540 O   0  0  0  0  0  0  0  0  0  0  0  0
  -19.7650   20.4540  -24.0720 C   0  0  0  0  0  0  0  0  0  0  0  0
  -19.0600   20.9270  -25.2730 N   0  0  0  0  0  0  0  0  0  0  0  0
  -18.5150   19.9820  -26.1420 C   0  0  0  0  0  0  0  0  0  0  0  0
  -18.5650   18.7610  -26.0040 O   0  0  0  0  0  0  0  0  0  0  0  0
  -17.8130   20.5430  -27.3360 C   0  0  0  0  0  0  0  0  0  0  0  0
  -17.7440   21.8680  -27.5130 C   0  0  0  0  0  0  0  0  0  0  0  0
  -18.3350   22.7720  -26.5650 C   0  0  0  0  0  0  0  0  0  0  0  0
  -18.9660   22.2860  -25.4900 C   0  0  0  0  0  0  0  0  0  0  0  0
  1  9  1  0  0  0  0
  2  1  2  0  0  0  0
  3  7  2  0  0  0  0
  3  2  1  0  0  0  0
  4  3  1  0  0  0  0
  5 10  1  6  0  0  0
  5  4  1  0  0  0  0
  5  6  1  0  0  0  0
  6 25  1  1  0  0  0
  6  7  1  0  0  0  0
  7  8  1  0  0  0  0
  8  9  2  0  0  0  0
 10 11  1  0  0  0  0
 12 10  1  0  0  0  0
 13 12  2  0  0  0  0
 14 12  1  0  0  0  0
 15 14  2  0  0  0  0
 16 24  2  0  0  0  0
 16 15  1  0  0  0  0
 17 16  1  0  0  0  0
 18 17  2  0  0  0  0
 19 21  1  0  0  0  0
 19 17  1  0  0  0  0
 20 19  1  0  0  0  0
 21 22  2  0  0  0  0
 22 24  1  0  0  0  0
 23 21  1  0  0  0  0
 25 26  1  0  0  0  0
 27 29  1  0  0  0  0
 27 25  1  0  0  0  0
 28 27  2  0  0  0  0
 30 29  1  0  0  0  0
 31 32  2  0  0  0  0
 31 30  1  0  0  0  0
 33 31  1  0  0  0  0
 34 33  2  0  0  0  0
 34 35  1  0  0  0  0
 35 36  2  0  0  0  0
 36 30  1  0  0  0  0
M  END
>  <ADSCOR>
   -7.59

$$$$
44
 OpenBabel08042116023D

 36 38  0  0  1  0  0  0  0  0999 V2000
  -20.2090   19.6510  -27.7080 C   0  0  1  0  0  0  0  0  0  0  0  0
  -16.7100   22.1340  -28.0970 C   0  0  0  0  0  0  0  0  0  0  0  0
  -16.7430   21.1200  -27.1410 C   0  0  0  0  0  0  0  0  0  0  0  0
  -17.8750   20.3150  -27.0140 C   0  0  0  0  0  0  0  0  0  0  0  0
  -18.9760   20.5260  -27.8460 C   0  0  0  0  0  0  0  0  0  0  0  0
  -18.9430   21.5400  -28.8030 C   0  0  0  0  0  0  0  0  0  0  0  0
  -17.8100   22.3440  -28.9280 C   0  0  0  0  0  0  0  0  0  0  0  0
  -19.8340   18.2350  -27.6030 N   0  0  0  0  0  0  0  0  0  0  0  0
  -19.7980   17.8110  -26.6920 H   0  0  0  0  0  0  0  0  0  0  0  0
  -19.5310   17.4680  -28.7030 C   0  0  0  0  0  0  0  0  0  0  0  0
  -19.5320   17.8480  -29.8710 O   0  0  0  0  0  0  0  0  0  0  0  0
  -19.1810   16.0610  -28.2880 C   0  0  0  0  0  0  0  0  0  0  0  0
  -20.2910   15.1580  -28.6250 N   0  0  0  0  0  0  0  0  0  0  0  0
  -20.9030   15.3130  -29.8470 N   0  0  0  0  0  0  0  0  0  0  0  0
  -20.5550   16.0490  -30.4540 H   0  0  0  0  0  0  0  0  0  0  0  0
  -21.9430   14.5130  -30.2470 C   0  0  0  0  0  0  0  0  0  0  0  0
  -22.5130   14.6240  -31.3310 O   0  0  0  0  0  0  0  0  0  0  0  0
  -22.3740   13.4750  -29.2920 C   0  0  0  0  0  0  0  0  0  0  0  0
  -21.7730   13.3370  -28.1110 C   0  0  0  0  0  0  0  0  0  0  0  0
  -20.6520   14.2130  -27.7080 C   0  0  0  0  0  0  0  0  0  0  0  0
  -20.1300   14.0440  -26.6060 O   0  0  0  0  0  0  0  0  0  0  0  0
  -21.1030   20.0460  -26.5230 C   0  0  0  0  0  0  0  0  0  0  0  0
  -21.1340   19.0240  -25.5020 N   0  0  0  0  0  0  0  0  0  0  0  0
  -22.0230   18.5680  -25.3180 H   0  0  0  0  0  0  0  0  0  0  0  0
  -19.9970   18.6330  -24.8160 C   0  0  0  0  0  0  0  0  0  0  0  0
  -18.8710   19.0900  -24.9860 O   0  0  0  0  0  0  0  0  0  0  0  0
  -20.2880   17.5630  -23.8220 C   0  0  0  0  0  0  0  0  0  0  0  0
  -20.5310   16.3120  -24.2350 C   0  0  0  0  0  0  0  0  0  0  0  0
  -20.8190   15.2330  -23.3330 C   0  0  0  0  0  0  0  0  0  0  0  0
  -22.0940   15.2250  -22.5690 C   0  0  0  0  0  0  0  0  0  0  0  0
  -22.9340   16.1130  -22.6730 O   0  0  0  0  0  0  0  0  0  0  0  0
  -22.2330   14.1260  -21.7410 N   0  0  0  0  0  0  0  0  0  0  0  0
  -23.0770   14.0410  -21.1820 H   0  0  0  0  0  0  0  0  0  0  0  0
  -21.2680   13.1500  -21.6510 C   0  0  0  0  0  0  0  0  0  0  0  0
  -20.1560   13.1460  -22.3090 N   0  0  0  0  0  0  0  0  0  0  0  0
  -19.9630   14.2150  -23.1510 C   0  0  0  0  0  0  0  0  0  0  0  0
  1  8  1  0  0  0  0
  1 22  1  1  0  0  0
  2  3  2  0  0  0  0
  3  4  1  0  0  0  0
  5  1  1  0  0  0  0
  5  4  2  0  0  0  0
  6  5  1  0  0  0  0
  7  6  2  0  0  0  0
  7  2  1  0  0  0  0
  8  9  1  0  0  0  0
 10 12  1  0  0  0  0
 10  8  1  0  0  0  0
 11 10  2  0  0  0  0
 13 12  1  0  0  0  0
 13 20  1  0  0  0  0
 14 13  1  0  0  0  0
 15 14  1  0  0  0  0
 16 14  1  0  0  0  0
 16 18  1  0  0  0  0
 17 16  2  0  0  0  0
 18 19  2  0  0  0  0
 19 20  1  0  0  0  0
 20 21  2  0  0  0  0
 22 23  1  0  0  0  0
 23 24  1  0  0  0  0
 23 25  1  0  0  0  0
 25 27  1  0  0  0  0
 26 25  2  0  0  0  0
 28 27  2  0  0  0  0
 28 29  1  0  0  0  0
 29 36  2  0  0  0  0
 29 30  1  0  0  0  0
 30 32  1  0  0  0  0
 31 30  2  0  0  0  0
 32 34  1  0  0  0  0
 32 33  1  0  0  0  0
 35 34  2  0  0  0  0
 36 35  1  0  0  0  0
M  END
>  <ADSCOR>
   -7.81

$$$$
45
 OpenBabel08042116023D

 38 41  0  0  1  0  0  0  0  0999 V2000
  -23.3280   18.2850  -31.1510 C   0  0  1  0  0  0  0  0  0  0  0  0
  -21.1720   12.4220  -29.2940 C   0  0  0  0  0  0  0  0  0  0  0  0
  -20.5880   13.6840  -29.1860 C   0  0  0  0  0  0  0  0  0  0  0  0
  -21.2520   14.8240  -29.6660 C   0  0  0  0  0  0  0  0  0  0  0  0
  -22.5270   14.6810  -30.2630 C   0  0  0  0  0  0  0  0  0  0  0  0
  -23.1920   15.8220  -30.7430 C   0  0  0  0  0  0  0  0  0  0  0  0
  -22.6080   17.0840  -30.6360 C   0  0  0  0  0  0  0  0  0  0  0  0
  -21.3540   17.2250  -30.0490 C   0  0  0  0  0  0  0  0  0  0  0  0
  -23.1000   13.4040  -30.3630 C   0  0  0  0  0  0  0  0  0  0  0  0
  -20.6790   16.1020  -29.5670 C   0  0  0  0  0  0  0  0  0  0  0  0
  -22.4250   12.2820  -29.8800 C   0  0  0  0  0  0  0  0  0  0  0  0
  -22.4210   19.4420  -31.3080 N   0  0  0  0  0  0  0  0  0  0  0  0
  -22.5390   20.2340  -30.7070 H   0  0  0  0  0  0  0  0  0  0  0  0
  -21.4280   19.4660  -32.2500 C   0  0  0  0  0  0  0  0  0  0  0  0
  -21.1640   18.5760  -33.0530 O   0  0  0  0  0  0  0  0  0  0  0  0
  -20.6720   20.7680  -32.1780 C   0  0  0  0  0  0  0  0  0  0  0  0
  -21.6100   21.8920  -32.3110 N   0  0  0  0  0  0  0  0  0  0  0  0
  -21.9730   22.2850  -33.5780 N   0  0  0  0  0  0  0  0  0  0  0  0
  -21.5710   21.7740  -34.3590 H   0  0  0  0  0  0  0  0  0  0  0  0
  -22.8440   23.3220  -33.7970 C   0  0  0  0  0  0  0  0  0  0  0  0
  -23.1900   23.6970  -34.9160 O   0  0  0  0  0  0  0  0  0  0  0  0
  -23.3700   23.9990  -32.5980 C   0  0  0  0  0  0  0  0  0  0  0  0
  -23.0080   23.6100  -31.3750 C   0  0  0  0  0  0  0  0  0  0  0  0
  -22.0680   22.4870  -31.1700 C   0  0  0  0  0  0  0  0  0  0  0  0
  -21.7660   22.1650  -30.0210 O   0  0  0  0  0  0  0  0  0  0  0  0
  -24.0750   18.0510  -32.4860 C   0  0  0  0  0  0  0  0  0  0  0  0
  -24.6470   19.2710  -32.9950 N   0  0  0  0  0  0  0  0  0  0  0  0
  -24.3860   19.5770  -33.9310 H   0  0  0  0  0  0  0  0  0  0  0  0
  -25.5330   20.0470  -32.2690 C   0  0  0  0  0  0  0  0  0  0  0  0
  -25.9450   19.8190  -31.1360 O   0  0  0  0  0  0  0  0  0  0  0  0
  -25.9750   21.2470  -33.0020 C   0  0  0  0  0  0  0  0  0  0  0  0
  -25.2830   21.6270  -34.0840 C   0  0  0  0  0  0  0  0  0  0  0  0
  -25.6610   22.7390  -34.7980 N   0  0  0  0  0  0  0  0  0  0  0  0
  -25.1120   22.9950  -35.6130 H   0  0  0  0  0  0  0  0  0  0  0  0
  -26.7500   23.5300  -34.4660 C   0  0  0  0  0  0  0  0  0  0  0  0
  -27.0960   24.5260  -35.0950 O   0  0  0  0  0  0  0  0  0  0  0  0
  -27.5140   23.0990  -33.2560 C   0  0  0  0  0  0  0  0  0  0  0  0
  -27.1240   22.0100  -32.5800 C   0  0  0  0  0  0  0  0  0  0  0  0
  1 26  1  6  0  0  0
  1  7  1  0  0  0  0
  2  3  1  0  0  0  0
  4 10  1  0  0  0  0
  4  3  2  0  0  0  0
  5  4  1  0  0  0  0
  6  7  2  0  0  0  0
  6  5  1  0  0  0  0
  7  8  1  0  0  0  0
  8 10  2  0  0  0  0
  9  5  2  0  0  0  0
  9 11  1  0  0  0  0
 11  2  2  0  0  0  0
 12  1  1  0  0  0  0
 12 13  1  0  0  0  0
 14 16  1  0  0  0  0
 14 12  1  0  0  0  0
 15 14  2  0  0  0  0
 17 16  1  0  0  0  0
 17 24  1  0  0  0  0
 18 17  1  0  0  0  0
 19 18  1  0  0  0  0
 20 18  1  0  0  0  0
 20 22  1  0  0  0  0
 21 20  2  0  0  0  0
 22 23  2  0  0  0  0
 23 24  1  0  0  0  0
 24 25  2  0  0  0  0
 27 26  1  0  0  0  0
 27 29  1  0  0  0  0
 28 27  1  0  0  0  0
 29 30  2  0  0  0  0
 31 38  1  0  0  0  0
 31 29  1  0  0  0  0
 32 31  2  0  0  0  0
 33 35  1  0  0  0  0
 33 32  1  0  0  0  0
 34 33  1  0  0  0  0
 35 37  1  0  0  0  0
 36 35  2  0  0  0  0
 37 38  2  0  0  0  0
M  END
>  <ADSCOR>
   -7.80

$$$$
46
 OpenBabel08042116023D

 38 41  0  0  1  0  0  0  0  0999 V2000
  -22.6430   12.8280  -29.5520 C   0  0  0  0  0  0  0  0  0  0  0  0
  -22.9600   13.1400  -28.2290 C   0  0  0  0  0  0  0  0  0  0  0  0
  -21.9650   13.6620  -27.4210 C   0  0  0  0  0  0  0  0  0  0  0  0
  -22.0760   14.1010  -25.9930 C   0  0  0  0  0  0  0  0  0  0  0  0
  -20.5910   14.1510  -25.5860 C   0  0  1  0  0  0  0  0  0  0  0  0
  -19.7910   14.4950  -26.8670 C   0  0  1  0  0  0  0  0  0  0  0  0
  -20.6740   13.8890  -27.9180 C   0  0  0  0  0  0  0  0  0  0  0  0
  -20.3550   13.5890  -29.2320 C   0  0  0  0  0  0  0  0  0  0  0  0
  -21.3500   13.0510  -30.0500 C   0  0  0  0  0  0  0  0  0  0  0  0
  -20.3540   15.0370  -24.4800 N   0  0  0  0  0  0  0  0  0  0  0  0
  -20.3010   16.0370  -24.6700 H   0  0  0  0  0  0  0  0  0  0  0  0
  -20.2400   14.5810  -23.1740 C   0  0  0  0  0  0  0  0  0  0  0  0
  -20.3240   13.4090  -22.8240 O   0  0  0  0  0  0  0  0  0  0  0  0
  -20.0010   15.6910  -22.2110 C   0  0  0  0  0  0  0  0  0  0  0  0
  -20.9280   16.6440  -22.0430 C   0  0  0  0  0  0  0  0  0  0  0  0
  -20.7630   17.7430  -21.1330 C   0  0  0  0  0  0  0  0  0  0  0  0
  -21.5900   17.8160  -19.9010 C   0  0  0  0  0  0  0  0  0  0  0  0
  -22.4260   16.9640  -19.6140 O   0  0  0  0  0  0  0  0  0  0  0  0
  -21.3240   18.9250  -19.1210 N   0  0  0  0  0  0  0  0  0  0  0  0
  -21.8540   19.0400  -18.2610 H   0  0  0  0  0  0  0  0  0  0  0  0
  -20.3770   19.8670  -19.4700 C   0  0  0  0  0  0  0  0  0  0  0  0
  -19.6540   19.8060  -20.5450 N   0  0  0  0  0  0  0  0  0  0  0  0
  -20.2150   21.0110  -18.5100 C   0  0  0  0  0  0  0  0  0  0  0  0
  -19.8770   18.7230  -21.3580 C   0  0  0  0  0  0  0  0  0  0  0  0
  -19.6150   15.9070  -27.0810 N   0  0  0  0  0  0  0  0  0  0  0  0
  -19.8850   16.5450  -26.3350 H   0  0  0  0  0  0  0  0  0  0  0  0
  -19.0940   16.4470  -28.2530 C   0  0  0  0  0  0  0  0  0  0  0  0
  -18.7290   15.7940  -29.2280 O   0  0  0  0  0  0  0  0  0  0  0  0
  -19.0310   17.9510  -28.1900 C   0  0  0  0  0  0  0  0  0  0  0  0
  -20.1820   18.4610  -27.4310 N   0  0  0  0  0  0  0  0  0  0  0  0
  -20.0860   18.5390  -26.0470 C   0  0  0  0  0  0  0  0  0  0  0  0
  -19.1260   18.2280  -25.3510 O   0  0  0  0  0  0  0  0  0  0  0  0
  -21.3070   19.0710  -25.3230 C   0  0  0  0  0  0  0  0  0  0  0  0
  -21.2650   19.1560  -24.1030 O   0  0  0  0  0  0  0  0  0  0  0  0
  -22.3820   19.4200  -26.1130 N   0  0  0  0  0  0  0  0  0  0  0  0
  -23.2210   19.7820  -25.6690 H   0  0  0  0  0  0  0  0  0  0  0  0
  -22.3790   19.3060  -27.4720 C   0  0  0  0  0  0  0  0  0  0  0  0
  -21.3090   18.8390  -28.1170 C   0  0  0  0  0  0  0  0  0  0  0  0
  1  2  1  0  0  0  0
  2  3  2  0  0  0  0
  3  4  1  0  0  0  0
  4  5  1  0  0  0  0
  5 10  1  1  0  0  0
  6 25  1  6  0  0  0
  6  5  1  0  0  0  0
  7  3  1  0  0  0  0
  7  6  1  0  0  0  0
  8  7  2  0  0  0  0
  9  1  2  0  0  0  0
  9  8  1  0  0  0  0
 10 12  1  0  0  0  0
 11 10  1  0  0  0  0
 12 13  2  0  0  0  0
 12 14  1  0  0  0  0
 14 15  2  0  0  0  0
 15 16  1  0  0  0  0
 16 17  1  0  0  0  0
 17 18  2  0  0  0  0
 17 19  1  0  0  0  0
 19 20  1  0  0  0  0
 21 19  1  0  0  0  0
 21 23  1  0  0  0  0
 22 21  2  0  0  0  0
 24 16  2  0  0  0  0
 24 22  1  0  0  0  0
 25 26  1  0  0  0  0
 27 29  1  0  0  0  0
 27 25  1  0  0  0  0
 28 27  2  0  0  0  0
 29 30  1  0  0  0  0
 30 31  1  0  0  0  0
 31 32  2  0  0  0  0
 31 33  1  0  0  0  0
 33 34  2  0  0  0  0
 35 36  1  0  0  0  0
 35 33  1  0  0  0  0
 37 35  1  0  0  0  0
 38 37  2  0  0  0  0
 38 30  1  0  0  0  0
M  END
>  <ADSCOR>
   -7.50

$$$$
47
 OpenBabel08042116023D

 39 42  0  0  1  0  0  0  0  0999 V2000
  -21.4650   18.0000  -26.7380 C   0  0  1  0  0  0  0  0  0  0  0  0
  -21.7760   12.3050  -29.8920 C   0  0  0  0  0  0  0  0  0  0  0  0
  -20.8370   13.3340  -29.9590 C   0  0  0  0  0  0  0  0  0  0  0  0
  -20.9810   14.4880  -29.1720 C   0  0  0  0  0  0  0  0  0  0  0  0
  -22.0930   14.5990  -28.3030 C   0  0  0  0  0  0  0  0  0  0  0  0
  -22.2370   15.7530  -27.5150 C   0  0  0  0  0  0  0  0  0  0  0  0
  -21.2970   16.7810  -27.5820 C   0  0  0  0  0  0  0  0  0  0  0  0
  -20.2030   16.6720  -28.4360 C   0  0  0  0  0  0  0  0  0  0  0  0
  -23.0290   13.5530  -28.2490 C   0  0  0  0  0  0  0  0  0  0  0  0
  -20.0440   15.5340  -29.2250 C   0  0  0  0  0  0  0  0  0  0  0  0
  -22.8700   12.4150  -29.0390 C   0  0  0  0  0  0  0  0  0  0  0  0
  -20.5870   19.1010  -27.1860 N   0  0  0  0  0  0  0  0  0  0  0  0
  -20.9280   19.7520  -27.8670 H   0  0  0  0  0  0  0  0  0  0  0  0
  -19.3250   19.2540  -26.6950 C   0  0  0  0  0  0  0  0  0  0  0  0
  -18.7500   18.5590  -25.8650 O   0  0  0  0  0  0  0  0  0  0  0  0
  -18.6490   20.4190  -27.2950 C   0  0  0  0  0  0  0  0  0  0  0  0
  -19.1160   21.0990  -28.5110 C   0  0  0  0  0  0  0  0  0  0  0  0
  -18.5600   22.1200  -29.0720 N   0  0  0  0  0  0  0  0  0  0  0  0
  -17.4410   22.5970  -28.4710 N   0  0  0  0  0  0  0  0  0  0  0  0
  -17.0260   23.3990  -28.9350 H   0  0  0  0  0  0  0  0  0  0  0  0
  -16.8720   22.0810  -27.3290 C   0  0  0  0  0  0  0  0  0  0  0  0
  -15.8570   22.5390  -26.8080 O   0  0  0  0  0  0  0  0  0  0  0  0
  -17.5480   20.9100  -26.7240 C   0  0  0  0  0  0  0  0  0  0  0  0
  -22.9200   18.5210  -26.6610 C   0  0  0  0  0  0  0  0  0  0  0  0
  -23.4280   18.8730  -27.9620 N   0  0  0  0  0  0  0  0  0  0  0  0
  -24.0200   18.2000  -28.4460 H   0  0  0  0  0  0  0  0  0  0  0  0
  -23.1530   20.0810  -28.5920 C   0  0  0  0  0  0  0  0  0  0  0  0
  -22.4560   20.9770  -28.1230 O   0  0  0  0  0  0  0  0  0  0  0  0
  -23.8160   20.1660  -29.9430 C   0  0  0  0  0  0  0  0  0  0  0  0
  -23.1230   19.2820  -30.8900 N   0  0  0  0  0  0  0  0  0  0  0  0
  -23.5180   17.9490  -31.0180 C   0  0  0  0  0  0  0  0  0  0  0  0
  -24.4330   17.4230  -30.3840 O   0  0  0  0  0  0  0  0  0  0  0  0
  -22.7410   17.1270  -32.0190 C   0  0  0  0  0  0  0  0  0  0  0  0
  -21.7470   17.7200  -32.7000 C   0  0  0  0  0  0  0  0  0  0  0  0
  -21.4060   19.1010  -32.5030 C   0  0  0  0  0  0  0  0  0  0  0  0
  -22.0920   19.8320  -31.6190 C   0  0  0  0  0  0  0  0  0  0  0  0
  -23.1150   15.8230  -32.1580 N   0  0  0  0  0  0  0  0  0  0  0  0
  -22.4900   15.1910  -32.6090 H   0  0  0  0  0  0  0  0  0  0  0  0
  -24.0040   15.5400  -31.8030 H   0  0  0  0  0  0  0  0  0  0  0  0
  1 24  1  6  0  0  0
  2 11  1  0  0  0  0
  3  2  2  0  0  0  0
  3  4  1  0  0  0  0
  4  5  1  0  0  0  0
  5  9  1  0  0  0  0
  5  6  2  0  0  0  0
  7  6  1  0  0  0  0
  7  1  1  0  0  0  0
  8  7  2  0  0  0  0
 10  4  2  0  0  0  0
 10  8  1  0  0  0  0
 11  9  2  0  0  0  0
 12  1  1  0  0  0  0
 12 14  1  0  0  0  0
 13 12  1  0  0  0  0
 14 15  2  0  0  0  0
 16 23  2  0  0  0  0
 16 14  1  0  0  0  0
 17 16  1  0  0  0  0
 18 17  2  0  0  0  0
 18 19  1  0  0  0  0
 19 21  1  0  0  0  0
 20 19  1  0  0  0  0
 21 22  2  0  0  0  0
 21 23  1  0  0  0  0
 25 24  1  0  0  0  0
 26 25  1  0  0  0  0
 27 28  2  0  0  0  0
 27 25  1  0  0  0  0
 29 27  1  0  0  0  0
 30 29  1  0  0  0  0
 31 30  1  0  0  0  0
 31 32  2  0  0  0  0
 33 31  1  0  0  0  0
 34 35  1  0  0  0  0
 34 33  2  0  0  0  0
 35 36  2  0  0  0  0
 36 30  1  0  0  0  0
 37 33  1  0  0  0  0
 37 39  1  0  0  0  0
 38 37  1  0  0  0  0
M  END
>  <ADSCOR>
   -8.51

$$$$
48
 OpenBabel08042116023D

 37 40  0  0  1  0  0  0  0  0999 V2000
  -23.7360   14.4180  -19.3000 C   0  0  0  0  0  0  0  0  0  0  0  0
  -23.6770   15.7150  -19.8130 C   0  0  0  0  0  0  0  0  0  0  0  0
  -22.5600   16.0810  -20.5450 C   0  0  0  0  0  0  0  0  0  0  0  0
  -22.2920   17.3920  -21.2190 C   0  0  0  0  0  0  0  0  0  0  0  0
  -20.7730   17.2930  -21.4560 C   0  0  1  0  0  0  0  0  0  0  0  0
  -20.4480   15.7890  -21.6310 C   0  0  1  0  0  0  0  0  0  0  0  0
  -21.5210   15.1720  -20.7830 C   0  0  0  0  0  0  0  0  0  0  0  0
  -21.5760   13.8820  -20.2820 C   0  0  0  0  0  0  0  0  0  0  0  0
  -22.6930   13.5080  -19.5320 C   0  0  0  0  0  0  0  0  0  0  0  0
  -20.3310   18.1290  -22.5380 N   0  0  0  0  0  0  0  0  0  0  0  0
  -19.4560   18.6400  -22.4250 H   0  0  0  0  0  0  0  0  0  0  0  0
  -21.0320   18.2770  -23.7310 C   0  0  0  0  0  0  0  0  0  0  0  0
  -22.0940   17.7210  -23.9970 O   0  0  0  0  0  0  0  0  0  0  0  0
  -20.3290   19.2180  -24.6760 C   0  0  0  0  0  0  0  0  0  0  0  0
  -20.0140   18.5140  -25.9280 N   0  0  0  0  0  0  0  0  0  0  0  0
  -20.2420   19.0880  -27.2210 C   0  0  0  0  0  0  0  0  0  0  0  0
  -19.7500   17.9570  -28.0990 C   0  0  0  0  0  0  0  0  0  0  0  0
  -19.7450   17.9820  -29.3220 O   0  0  0  0  0  0  0  0  0  0  0  0
  -19.3230   16.9300  -27.2940 N   0  0  0  0  0  0  0  0  0  0  0  0
  -18.9470   16.0540  -27.6380 H   0  0  0  0  0  0  0  0  0  0  0  0
  -19.4720   17.2410  -25.9580 C   0  0  0  0  0  0  0  0  0  0  0  0
  -19.1780   16.5210  -25.0140 O   0  0  0  0  0  0  0  0  0  0  0  0
  -20.5290   15.3320  -22.9930 N   0  0  0  0  0  0  0  0  0  0  0  0
  -20.8180   16.0010  -23.7040 H   0  0  0  0  0  0  0  0  0  0  0  0
  -20.1910   14.0380  -23.3620 C   0  0  0  0  0  0  0  0  0  0  0  0
  -19.7970   13.1630  -22.5980 O   0  0  0  0  0  0  0  0  0  0  0  0
  -20.3550   13.8130  -24.8250 C   0  0  0  0  0  0  0  0  0  0  0  0
  -21.4380   14.2810  -25.4590 C   0  0  0  0  0  0  0  0  0  0  0  0
  -21.6610   14.0990  -26.8660 C   0  0  0  0  0  0  0  0  0  0  0  0
  -20.5050   13.9880  -27.7920 C   0  0  0  0  0  0  0  0  0  0  0  0
  -19.3420   14.0440  -27.4080 O   0  0  0  0  0  0  0  0  0  0  0  0
  -20.8710   13.8150  -29.1150 N   0  0  0  0  0  0  0  0  0  0  0  0
  -20.1310   13.7320  -29.8050 H   0  0  0  0  0  0  0  0  0  0  0  0
  -22.1900   13.7560  -29.5170 C   0  0  0  0  0  0  0  0  0  0  0  0
  -23.2010   13.8540  -28.7110 N   0  0  0  0  0  0  0  0  0  0  0  0
  -22.4110   13.5670  -30.9900 C   0  0  0  0  0  0  0  0  0  0  0  0
  -22.8950   14.0260  -27.3830 C   0  0  0  0  0  0  0  0  0  0  0  0
  2  1  2  0  0  0  0
  3  2  1  0  0  0  0
  4  3  1  0  0  0  0
  5 10  1  6  0  0  0
  5  4  1  0  0  0  0
  6 23  1  6  0  0  0
  6  5  1  0  0  0  0
  6  7  1  0  0  0  0
  7  3  2  0  0  0  0
  7  8  1  0  0  0  0
  8  9  2  0  0  0  0
  9  1  1  0  0  0  0
 10 11  1  0  0  0  0
 12 10  1  0  0  0  0
 13 12  2  0  0  0  0
 14 12  1  0  0  0  0
 15 14  1  0  0  0  0
 16 15  1  0  0  0  0
 17 19  1  0  0  0  0
 17 16  1  0  0  0  0
 18 17  2  0  0  0  0
 19 21  1  0  0  0  0
 20 19  1  0  0  0  0
 21 15  1  0  0  0  0
 21 22  2  0  0  0  0
 24 23  1  0  0  0  0
 25 23  1  0  0  0  0
 25 26  2  0  0  0  0
 27 25  1  0  0  0  0
 28 27  2  0  0  0  0
 29 28  1  0  0  0  0
 30 31  2  0  0  0  0
 30 29  1  0  0  0  0
 32 30  1  0  0  0  0
 33 32  1  0  0  0  0
 34 32  1  0  0  0  0
 34 35  2  0  0  0  0
 35 37  1  0  0  0  0
 36 34  1  0  0  0  0
 37 29  2  0  0  0  0
M  END
>  <ADSCOR>
   -7.03

$$$$
49
 OpenBabel08042116023D

 36 39  0  0  1  0  0  0  0  0999 V2000
  -21.3270   13.6970  -20.9110 C   0  0  0  0  0  0  0  0  0  0  0  0
  -21.7580   15.0140  -21.0800 C   0  0  0  0  0  0  0  0  0  0  0  0
  -21.2110   15.7580  -22.1110 C   0  0  0  0  0  0  0  0  0  0  0  0
  -21.5400   17.1650  -22.5060 C   0  0  0  0  0  0  0  0  0  0  0  0
  -20.3250   17.5130  -23.3870 C   0  0  1  0  0  0  0  0  0  0  0  0
  -19.8500   16.1880  -24.0330 C   0  0  1  0  0  0  0  0  0  0  0  0
  -20.2590   15.2020  -22.9780 C   0  0  0  0  0  0  0  0  0  0  0  0
  -19.8320   13.8940  -22.8210 C   0  0  0  0  0  0  0  0  0  0  0  0
  -20.3710   13.1410  -21.7750 C   0  0  0  0  0  0  0  0  0  0  0  0
  -20.6100   18.5640  -24.3240 N   0  0  0  0  0  0  0  0  0  0  0  0
  -21.4640   19.1070  -24.1940 H   0  0  0  0  0  0  0  0  0  0  0  0
  -19.7850   18.8810  -25.3980 C   0  0  0  0  0  0  0  0  0  0  0  0
  -18.7320   18.3110  -25.6700 O   0  0  0  0  0  0  0  0  0  0  0  0
  -20.3410   20.0250  -26.2090 C   0  0  0  0  0  0  0  0  0  0  0  0
  -19.2370   20.7740  -26.8270 N   0  0  0  0  0  0  0  0  0  0  0  0
  -18.0310   20.8130  -26.1660 N   0  0  0  0  0  0  0  0  0  0  0  0
  -17.9700   20.3190  -25.2800 H   0  0  0  0  0  0  0  0  0  0  0  0
  -16.9460   21.4840  -26.6680 C   0  0  0  0  0  0  0  0  0  0  0  0
  -15.8560   21.5380  -26.1040 O   0  0  0  0  0  0  0  0  0  0  0  0
  -17.1420   22.1680  -27.9600 C   0  0  0  0  0  0  0  0  0  0  0  0
  -18.3160   22.1240  -28.5880 C   0  0  0  0  0  0  0  0  0  0  0  0
  -19.4680   21.3910  -28.0220 C   0  0  0  0  0  0  0  0  0  0  0  0
  -20.5310   21.3790  -28.6440 O   0  0  0  0  0  0  0  0  0  0  0  0
  -20.4810   15.8970  -25.2940 N   0  0  0  0  0  0  0  0  0  0  0  0
  -21.0890   16.6020  -25.7040 H   0  0  0  0  0  0  0  0  0  0  0  0
  -20.2990   14.7030  -25.9780 C   0  0  0  0  0  0  0  0  0  0  0  0
  -19.5930   13.7710  -25.5950 O   0  0  0  0  0  0  0  0  0  0  0  0
  -21.0740   14.6400  -27.2800 C   0  0  0  0  0  0  0  0  0  0  0  0
  -20.6800   15.7870  -28.1410 C   0  0  0  0  0  0  0  0  0  0  0  0
  -19.4120   16.0470  -28.4930 C   0  0  0  0  0  0  0  0  0  0  0  0
  -19.1010   17.1200  -29.2910 N   0  0  0  0  0  0  0  0  0  0  0  0
  -18.1240   17.2660  -29.5220 H   0  0  0  0  0  0  0  0  0  0  0  0
  -20.0460   18.0040  -29.7890 C   0  0  0  0  0  0  0  0  0  0  0  0
  -19.7800   18.9670  -30.5040 O   0  0  0  0  0  0  0  0  0  0  0  0
  -21.4570   17.7190  -29.4020 C   0  0  0  0  0  0  0  0  0  0  0  0
  -21.7290   16.6650  -28.6210 C   0  0  0  0  0  0  0  0  0  0  0  0
  2  1  1  0  0  0  0
  3  2  2  0  0  0  0
  4  3  1  0  0  0  0
  5 10  1  6  0  0  0
  5  4  1  0  0  0  0
  6 24  1  6  0  0  0
  6  5  1  0  0  0  0
  6  7  1  0  0  0  0
  7  8  2  0  0  0  0
  7  3  1  0  0  0  0
  8  9  1  0  0  0  0
  9  1  2  0  0  0  0
 10 11  1  0  0  0  0
 12 10  1  0  0  0  0
 13 12  2  0  0  0  0
 14 12  1  0  0  0  0
 15 14  1  0  0  0  0
 15 16  1  0  0  0  0
 16 17  1  0  0  0  0
 18 16  1  0  0  0  0
 18 19  2  0  0  0  0
 20 18  1  0  0  0  0
 21 22  1  0  0  0  0
 21 20  2  0  0  0  0
 22 15  1  0  0  0  0
 23 22  2  0  0  0  0
 25 24  1  0  0  0  0
 26 27  2  0  0  0  0
 26 24  1  0  0  0  0
 28 26  1  0  0  0  0
 29 28  1  0  0  0  0
 30 29  2  0  0  0  0
 31 30  1  0  0  0  0
 32 31  1  0  0  0  0
 33 35  1  0  0  0  0
 33 31  1  0  0  0  0
 34 33  2  0  0  0  0
 35 36  2  0  0  0  0
 36 29  1  0  0  0  0
M  END
>  <ADSCOR>
   -8.46

$$$$
5
 OpenBabel08042116023D

 37 39  0  0  1  0  0  0  0  0999 V2000
  -19.5260   16.1120  -24.9480 C   0  0  1  0  0  0  0  0  0  0  0  0
  -22.3460   13.3780  -30.1500 C   0  0  0  0  0  0  0  0  0  0  0  0
  -21.4210   14.4190  -30.0550 C   0  0  0  0  0  0  0  0  0  0  0  0
  -20.9470   14.8450  -28.8030 C   0  0  0  0  0  0  0  0  0  0  0  0
  -21.4180   14.2060  -27.6320 C   0  0  0  0  0  0  0  0  0  0  0  0
  -20.9440   14.6320  -26.3800 C   0  0  0  0  0  0  0  0  0  0  0  0
  -20.0200   15.6730  -26.2850 C   0  0  0  0  0  0  0  0  0  0  0  0
  -19.5570   16.3010  -27.4370 C   0  0  0  0  0  0  0  0  0  0  0  0
  -22.3480   13.1600  -27.7450 C   0  0  0  0  0  0  0  0  0  0  0  0
  -20.0170   15.8910  -28.6890 C   0  0  0  0  0  0  0  0  0  0  0  0
  -22.8080   12.7500  -28.9980 C   0  0  0  0  0  0  0  0  0  0  0  0
  -19.3560   17.5790  -24.8820 N   0  0  0  0  0  0  0  0  0  0  0  0
  -18.4680   17.9020  -24.5540 H   0  0  0  0  0  0  0  0  0  0  0  0
  -20.3520   18.4210  -25.2900 C   0  0  0  0  0  0  0  0  0  0  0  0
  -21.4490   18.0980  -25.7340 O   0  0  0  0  0  0  0  0  0  0  0  0
  -19.9380   19.8430  -25.1290 C   0  0  0  0  0  0  0  0  0  0  0  0
  -18.7220   20.2360  -25.5280 C   0  0  0  0  0  0  0  0  0  0  0  0
  -18.2570   21.5900  -25.4030 C   0  0  0  0  0  0  0  0  0  0  0  0
  -17.0210   22.0170  -26.1090 C   0  0  0  0  0  0  0  0  0  0  0  0
  -16.3620   21.2570  -26.8110 O   0  0  0  0  0  0  0  0  0  0  0  0
  -16.6960   23.3440  -25.8960 N   0  0  0  0  0  0  0  0  0  0  0  0
  -15.8640   23.7200  -26.3420 H   0  0  0  0  0  0  0  0  0  0  0  0
  -17.4610   24.1670  -25.1010 C   0  0  0  0  0  0  0  0  0  0  0  0
  -18.5360   23.8060  -24.4820 N   0  0  0  0  0  0  0  0  0  0  0  0
  -18.9090   22.4960  -24.6580 C   0  0  0  0  0  0  0  0  0  0  0  0
  -20.4150   15.6590  -23.7650 C   0  0  0  0  0  0  0  0  0  0  0  0
  -20.4810   16.6620  -22.7340 N   0  0  0  0  0  0  0  0  0  0  0  0
  -19.6090   17.0290  -22.3560 H   0  0  0  0  0  0  0  0  0  0  0  0
  -21.6790   17.1520  -22.2340 C   0  0  0  0  0  0  0  0  0  0  0  0
  -22.7970   16.8000  -22.5970 O   0  0  0  0  0  0  0  0  0  0  0  0
  -21.4660   18.1780  -21.1750 C   0  0  0  0  0  0  0  0  0  0  0  0
  -20.3000   18.8330  -21.1100 C   0  0  0  0  0  0  0  0  0  0  0  0
  -20.0880   19.8540  -20.0510 C   0  0  0  0  0  0  0  0  0  0  0  0
  -20.5120   19.7360  -18.9060 O   0  0  0  0  0  0  0  0  0  0  0  0
  -19.3680   20.9360  -20.5020 N   0  0  0  0  0  0  0  0  0  0  0  0
  -19.1310   21.7280  -19.9110 H   0  0  0  0  0  0  0  0  0  0  0  0
  -19.0590   20.9430  -21.4690 H   0  0  0  0  0  0  0  0  0  0  0  0
  1 12  1  0  0  0  0
  1 26  1  1  0  0  0
  2  3  2  0  0  0  0
  2 11  1  0  0  0  0
  3  4  1  0  0  0  0
  4 10  2  0  0  0  0
  4  5  1  0  0  0  0
  5  6  2  0  0  0  0
  6  7  1  0  0  0  0
  7  1  1  0  0  0  0
  8  7  2  0  0  0  0
  9  5  1  0  0  0  0
 10  8  1  0  0  0  0
 11  9  2  0  0  0  0
 12 13  1  0  0  0  0
 14 16  1  0  0  0  0
 14 12  1  0  0  0  0
 15 14  2  0  0  0  0
 17 18  1  0  0  0  0
 17 16  2  0  0  0  0
 18 25  2  0  0  0  0
 19 21  1  0  0  0  0
 19 18  1  0  0  0  0
 20 19  2  0  0  0  0
 21 23  1  0  0  0  0
 22 21  1  0  0  0  0
 23 24  2  0  0  0  0
 25 24  1  0  0  0  0
 26 27  1  0  0  0  0
 27 28  1  0  0  0  0
 27 29  1  0  0  0  0
 29 31  1  0  0  0  0
 30 29  2  0  0  0  0
 31 32  2  0  0  0  0
 32 33  1  0  0  0  0
 33 34  2  0  0  0  0
 35 33  1  0  0  0  0
 35 36  1  0  0  0  0
 37 35  1  0  0  0  0
M  END
>  <ADSCOR>
   -9.37

$$$$
50
 OpenBabel08042116023D

 38 41  0  0  1  0  0  0  0  0999 V2000
  -22.4120   18.4870  -30.7910 C   0  0  1  0  0  0  0  0  0  0  0  0
  -22.0960   12.1490  -29.3030 C   0  0  0  0  0  0  0  0  0  0  0  0
  -23.0070   12.8570  -30.0860 C   0  0  0  0  0  0  0  0  0  0  0  0
  -22.8720   14.2440  -30.2670 C   0  0  0  0  0  0  0  0  0  0  0  0
  -21.7950   14.9200  -29.6450 C   0  0  0  0  0  0  0  0  0  0  0  0
  -21.6590   16.3060  -29.8270 C   0  0  0  0  0  0  0  0  0  0  0  0
  -22.5710   17.0150  -30.6090 C   0  0  0  0  0  0  0  0  0  0  0  0
  -23.6300   16.3490  -31.2210 C   0  0  0  0  0  0  0  0  0  0  0  0
  -20.8870   14.1910  -28.8610 C   0  0  0  0  0  0  0  0  0  0  0  0
  -23.7800   14.9720  -31.0510 C   0  0  0  0  0  0  0  0  0  0  0  0
  -21.0380   12.8140  -28.6920 C   0  0  0  0  0  0  0  0  0  0  0  0
  -21.9940   19.1520  -29.5380 N   0  0  0  0  0  0  0  0  0  0  0  0
  -22.6910   19.5810  -28.9620 H   0  0  0  0  0  0  0  0  0  0  0  0
  -20.6840   19.2020  -29.1420 C   0  0  0  0  0  0  0  0  0  0  0  0
  -19.7240   18.7240  -29.7410 O   0  0  0  0  0  0  0  0  0  0  0  0
  -20.5620   19.9430  -27.8360 C   0  0  0  0  0  0  0  0  0  0  0  0
  -19.2290   20.5560  -27.7380 N   0  0  0  0  0  0  0  0  0  0  0  0
  -18.8670   21.4720  -28.6990 N   0  0  0  0  0  0  0  0  0  0  0  0
  -19.5440   21.6760  -29.4280 H   0  0  0  0  0  0  0  0  0  0  0  0
  -17.6450   22.0950  -28.6860 C   0  0  0  0  0  0  0  0  0  0  0  0
  -17.2910   22.9190  -29.5280 O   0  0  0  0  0  0  0  0  0  0  0  0
  -16.7360   21.7290  -27.5850 C   0  0  0  0  0  0  0  0  0  0  0  0
  -17.0980   20.8380  -26.6620 C   0  0  0  0  0  0  0  0  0  0  0  0
  -18.4230   20.1830  -26.7010 C   0  0  0  0  0  0  0  0  0  0  0  0
  -18.7110   19.3680  -25.8250 O   0  0  0  0  0  0  0  0  0  0  0  0
  -21.4290   18.8830  -31.9190 C   0  0  0  0  0  0  0  0  0  0  0  0
  -21.8140   20.1180  -32.5490 N   0  0  0  0  0  0  0  0  0  0  0  0
  -22.5540   20.0970  -33.2490 H   0  0  0  0  0  0  0  0  0  0  0  0
  -21.2230   21.3330  -32.2500 C   0  0  0  0  0  0  0  0  0  0  0  0
  -20.3250   21.5270  -31.4380 O   0  0  0  0  0  0  0  0  0  0  0  0
  -21.7870   22.4500  -33.0290 C   0  0  0  0  0  0  0  0  0  0  0  0
  -22.7340   22.2790  -34.1380 C   0  0  0  0  0  0  0  0  0  0  0  0
  -23.2530   23.2240  -34.8490 N   0  0  0  0  0  0  0  0  0  0  0  0
  -22.8780   24.4880  -34.5260 N   0  0  0  0  0  0  0  0  0  0  0  0
  -23.3020   25.2100  -35.1010 H   0  0  0  0  0  0  0  0  0  0  0  0
  -22.0040   24.8240  -33.5180 C   0  0  0  0  0  0  0  0  0  0  0  0
  -21.6860   25.9810  -33.2510 O   0  0  0  0  0  0  0  0  0  0  0  0
  -21.4360   23.7020  -32.7340 C   0  0  0  0  0  0  0  0  0  0  0  0
  1 26  1  6  0  0  0
  1  7  1  0  0  0  0
  1 12  1  0  0  0  0
  2 11  2  0  0  0  0
  3  2  1  0  0  0  0
  4  3  2  0  0  0  0
  4  5  1  0  0  0  0
  5  9  2  0  0  0  0
  6  5  1  0  0  0  0
  7  6  2  0  0  0  0
  8 10  2  0  0  0  0
  8  7  1  0  0  0  0
  9 11  1  0  0  0  0
 10  4  1  0  0  0  0
 12 14  1  0  0  0  0
 12 13  1  0  0  0  0
 14 16  1  0  0  0  0
 15 14  2  0  0  0  0
 16 17  1  0  0  0  0
 17 24  1  0  0  0  0
 18 20  1  0  0  0  0
 18 17  1  0  0  0  0
 19 18  1  0  0  0  0
 20 22  1  0  0  0  0
 21 20  2  0  0  0  0
 22 23  2  0  0  0  0
 24 23  1  0  0  0  0
 24 25  2  0  0  0  0
 27 29  1  0  0  0  0
 27 26  1  0  0  0  0
 28 27  1  0  0  0  0
 29 30  2  0  0  0  0
 31 38  2  0  0  0  0
 31 29  1  0  0  0  0
 32 31  1  0  0  0  0
 33 34  1  0  0  0  0
 33 32  2  0  0  0  0
 34 36  1  0  0  0  0
 35 34  1  0  0  0  0
 36 37  2  0  0  0  0
 36 38  1  0  0  0  0
M  END
>  <ADSCOR>
   -8.36

$$$$
51
 OpenBabel08042116023D

 38 41  0  0  1  0  0  0  0  0999 V2000
  -21.7110   12.4750  -29.4530 C   0  0  0  0  0  0  0  0  0  0  0  0
  -22.1370   13.1580  -30.5940 C   0  0  0  0  0  0  0  0  0  0  0  0
  -22.5460   14.4730  -30.4570 C   0  0  0  0  0  0  0  0  0  0  0  0
  -23.0050   15.4090  -31.5330 C   0  0  0  0  0  0  0  0  0  0  0  0
  -23.6970   16.5010  -30.6940 C   0  0  1  0  0  0  0  0  0  0  0  0
  -22.9680   16.5410  -29.3290 C   0  0  1  0  0  0  0  0  0  0  0  0
  -22.5190   15.1140  -29.2110 C   0  0  0  0  0  0  0  0  0  0  0  0
  -22.0910   14.4450  -28.0770 C   0  0  0  0  0  0  0  0  0  0  0  0
  -21.6880   13.1140  -28.2030 C   0  0  0  0  0  0  0  0  0  0  0  0
  -23.7540   17.7630  -31.3770 N   0  0  0  0  0  0  0  0  0  0  0  0
  -22.8900   18.2950  -31.4750 H   0  0  0  0  0  0  0  0  0  0  0  0
  -24.9270   18.2540  -31.9360 C   0  0  0  0  0  0  0  0  0  0  0  0
  -26.0130   17.6870  -31.9120 O   0  0  0  0  0  0  0  0  0  0  0  0
  -24.7260   19.5770  -32.5900 C   0  0  0  0  0  0  0  0  0  0  0  0
  -23.5050   20.1270  -32.6280 C   0  0  0  0  0  0  0  0  0  0  0  0
  -23.2400   21.3990  -33.2410 C   0  0  0  0  0  0  0  0  0  0  0  0
  -21.9000   22.0230  -33.1040 C   0  0  0  0  0  0  0  0  0  0  0  0
  -20.9840   21.4950  -32.4800 O   0  0  0  0  0  0  0  0  0  0  0  0
  -21.7890   23.2430  -33.7450 N   0  0  0  0  0  0  0  0  0  0  0  0
  -20.8970   23.7280  -33.6940 H   0  0  0  0  0  0  0  0  0  0  0  0
  -22.8370   23.8130  -34.4410 C   0  0  0  0  0  0  0  0  0  0  0  0
  -24.0090   23.2700  -34.5620 N   0  0  0  0  0  0  0  0  0  0  0  0
  -22.5470   25.1420  -35.0770 C   0  0  0  0  0  0  0  0  0  0  0  0
  -24.1740   22.0550  -33.9440 C   0  0  0  0  0  0  0  0  0  0  0  0
  -21.8500   17.4470  -29.2930 N   0  0  0  0  0  0  0  0  0  0  0  0
  -20.9180   17.0490  -29.2090 H   0  0  0  0  0  0  0  0  0  0  0  0
  -22.0050   18.8200  -29.4110 C   0  0  0  0  0  0  0  0  0  0  0  0
  -23.0750   19.4030  -29.5530 O   0  0  0  0  0  0  0  0  0  0  0  0
  -20.7020   19.5370  -29.3490 C   0  0  0  0  0  0  0  0  0  0  0  0
  -20.1700   19.8640  -28.1640 C   0  0  0  0  0  0  0  0  0  0  0  0
  -18.9190   20.5560  -28.0310 C   0  0  0  0  0  0  0  0  0  0  0  0
  -18.7460   21.9010  -28.6380 C   0  0  0  0  0  0  0  0  0  0  0  0
  -19.6410   22.4660  -29.2610 O   0  0  0  0  0  0  0  0  0  0  0  0
  -17.4920   22.4420  -28.4300 N   0  0  0  0  0  0  0  0  0  0  0  0
  -17.2890   23.3610  -28.8110 H   0  0  0  0  0  0  0  0  0  0  0  0
  -16.5140   21.7780  -27.7260 C   0  0  0  0  0  0  0  0  0  0  0  0
  -16.6520   20.6080  -27.1930 N   0  0  0  0  0  0  0  0  0  0  0  0
  -17.8820   20.0210  -27.3680 C   0  0  0  0  0  0  0  0  0  0  0  0
  1  9  2  0  0  0  0
  2  3  2  0  0  0  0
  2  1  1  0  0  0  0
  3  7  1  0  0  0  0
  4  5  1  0  0  0  0
  4  3  1  0  0  0  0
  5 10  1  6  0  0  0
  5  6  1  0  0  0  0
  6 25  1  6  0  0  0
  6  7  1  0  0  0  0
  7  8  2  0  0  0  0
  9  8  1  0  0  0  0
 11 10  1  0  0  0  0
 12 13  2  0  0  0  0
 12 10  1  0  0  0  0
 14 12  1  0  0  0  0
 15 14  2  0  0  0  0
 16 17  1  0  0  0  0
 16 15  1  0  0  0  0
 17 18  2  0  0  0  0
 19 20  1  0  0  0  0
 19 17  1  0  0  0  0
 21 19  1  0  0  0  0
 22 21  2  0  0  0  0
 22 24  1  0  0  0  0
 23 21  1  0  0  0  0
 24 16  2  0  0  0  0
 25 26  1  0  0  0  0
 27 29  1  0  0  0  0
 27 25  1  0  0  0  0
 28 27  2  0  0  0  0
 29 30  2  0  0  0  0
 30 31  1  0  0  0  0
 31 38  2  0  0  0  0
 32 34  1  0  0  0  0
 32 31  1  0  0  0  0
 33 32  2  0  0  0  0
 34 36  1  0  0  0  0
 35 34  1  0  0  0  0
 36 37  2  0  0  0  0
 38 37  1  0  0  0  0
M  END
>  <ADSCOR>
   -8.85

$$$$
52
 OpenBabel08042116023D

 38 40  0  0  1  0  0  0  0  0999 V2000
  -21.9920   15.2170  -26.5100 C   0  0  1  0  0  0  0  0  0  0  0  0
  -21.7470   12.3460  -29.7130 C   0  0  0  0  0  0  0  0  0  0  0  0
  -20.7130   13.2580  -29.5130 C   0  0  0  0  0  0  0  0  0  0  0  0
  -20.7910   14.1880  -28.4760 C   0  0  0  0  0  0  0  0  0  0  0  0
  -21.9060   14.2050  -27.6380 C   0  0  0  0  0  0  0  0  0  0  0  0
  -22.9420   13.2910  -27.8370 C   0  0  0  0  0  0  0  0  0  0  0  0
  -22.8620   12.3620  -28.8740 C   0  0  0  0  0  0  0  0  0  0  0  0
  -21.2070   14.7730  -25.3510 N   0  0  0  0  0  0  0  0  0  0  0  0
  -21.6850   14.5850  -24.4860 H   0  0  0  0  0  0  0  0  0  0  0  0
  -19.8430   14.6040  -25.4040 C   0  0  0  0  0  0  0  0  0  0  0  0
  -19.1300   14.7950  -26.3850 O   0  0  0  0  0  0  0  0  0  0  0  0
  -19.3130   14.1470  -24.0690 C   0  0  0  0  0  0  0  0  0  0  0  0
  -20.1620   14.6820  -22.9930 N   0  0  0  0  0  0  0  0  0  0  0  0
  -20.1140   16.0330  -22.7420 N   0  0  0  0  0  0  0  0  0  0  0  0
  -19.4910   16.5930  -23.3160 H   0  0  0  0  0  0  0  0  0  0  0  0
  -20.8730   16.6180  -21.7610 C   0  0  0  0  0  0  0  0  0  0  0  0
  -20.8560   17.8220  -21.5110 O   0  0  0  0  0  0  0  0  0  0  0  0
  -21.7450   15.7180  -20.9840 C   0  0  0  0  0  0  0  0  0  0  0  0
  -21.7800   14.4100  -21.2370 C   0  0  0  0  0  0  0  0  0  0  0  0
  -20.9510   13.8070  -22.3030 C   0  0  0  0  0  0  0  0  0  0  0  0
  -21.0210   12.5940  -22.4970 O   0  0  0  0  0  0  0  0  0  0  0  0
  -21.5560   16.6290  -26.9280 C   0  0  0  0  0  0  0  0  0  0  0  0
  -21.5650   17.5520  -25.8170 N   0  0  0  0  0  0  0  0  0  0  0  0
  -22.4670   17.8240  -25.4370 H   0  0  0  0  0  0  0  0  0  0  0  0
  -20.3970   18.0290  -25.2450 C   0  0  0  0  0  0  0  0  0  0  0  0
  -19.2600   17.7360  -25.6010 O   0  0  0  0  0  0  0  0  0  0  0  0
  -20.6710   18.9590  -24.1150 C   0  0  0  0  0  0  0  0  0  0  0  0
  -20.4700   20.2740  -24.2650 C   0  0  0  0  0  0  0  0  0  0  0  0
  -20.7130   21.2260  -23.2180 C   0  0  0  0  0  0  0  0  0  0  0  0
  -21.7860   22.2560  -23.3740 C   0  0  0  0  0  0  0  0  0  0  0  0
  -22.4840   22.3190  -24.3830 O   0  0  0  0  0  0  0  0  0  0  0  0
  -21.9300   23.1240  -22.2980 N   0  0  0  0  0  0  0  0  0  0  0  0
  -22.6500   23.8360  -22.3760 H   0  0  0  0  0  0  0  0  0  0  0  0
  -21.1800   23.1130  -21.1210 C   0  0  0  0  0  0  0  0  0  0  0  0
  -21.3650   23.9150  -20.2050 O   0  0  0  0  0  0  0  0  0  0  0  0
  -20.2120   22.1230  -21.0700 N   0  0  0  0  0  0  0  0  0  0  0  0
  -19.6300   22.0600  -20.2400 H   0  0  0  0  0  0  0  0  0  0  0  0
  -20.0010   21.2280  -22.0830 C   0  0  0  0  0  0  0  0  0  0  0  0
  1 22  1  6  0  0  0
  1  8  1  0  0  0  0
  2  3  2  0  0  0  0
  2  7  1  0  0  0  0
  3  4  1  0  0  0  0
  4  5  2  0  0  0  0
  5  1  1  0  0  0  0
  6  5  1  0  0  0  0
  7  6  2  0  0  0  0
  8  9  1  0  0  0  0
 10  8  1  0  0  0  0
 10 12  1  0  0  0  0
 11 10  2  0  0  0  0
 12 13  1  0  0  0  0
 13 14  1  0  0  0  0
 13 20  1  0  0  0  0
 14 16  1  0  0  0  0
 15 14  1  0  0  0  0
 16 17  2  0  0  0  0
 16 18  1  0  0  0  0
 19 18  2  0  0  0  0
 20 19  1  0  0  0  0
 21 20  2  0  0  0  0
 22 23  1  0  0  0  0
 23 24  1  0  0  0  0
 23 25  1  0  0  0  0
 25 27  1  0  0  0  0
 26 25  2  0  0  0  0
 28 27  2  0  0  0  0
 28 29  1  0  0  0  0
 29 38  2  0  0  0  0
 30 29  1  0  0  0  0
 30 32  1  0  0  0  0
 31 30  2  0  0  0  0
 32 34  1  0  0  0  0
 33 32  1  0  0  0  0
 34 36  1  0  0  0  0
 34 35  2  0  0  0  0
 36 37  1  0  0  0  0
 38 36  1  0  0  0  0
M  END
>  <ADSCOR>
   -7.45

$$$$
53
 OpenBabel08042116023D

 38 41  0  0  1  0  0  0  0  0999 V2000
  -23.7460   14.7340  -30.6180 C   0  0  0  0  0  0  0  0  0  0  0  0
  -23.0920   13.6610  -30.0110 C   0  0  0  0  0  0  0  0  0  0  0  0
  -21.7540   13.8090  -29.6780 C   0  0  0  0  0  0  0  0  0  0  0  0
  -20.8490   12.7860  -29.0650 C   0  0  0  0  0  0  0  0  0  0  0  0
  -19.6700   13.6570  -28.5860 C   0  0  1  0  0  0  0  0  0  0  0  0
  -19.6240   14.8780  -29.5410 C   0  0  1  0  0  0  0  0  0  0  0  0
  -21.0660   14.9980  -29.9490 C   0  0  0  0  0  0  0  0  0  0  0  0
  -21.7070   16.0600  -30.5680 C   0  0  0  0  0  0  0  0  0  0  0  0
  -23.0590   15.9250  -30.8950 C   0  0  0  0  0  0  0  0  0  0  0  0
  -19.8550   14.0370  -27.2000 N   0  0  0  0  0  0  0  0  0  0  0  0
  -19.0440   14.3690  -26.6790 H   0  0  0  0  0  0  0  0  0  0  0  0
  -21.0800   13.9730  -26.5420 C   0  0  0  0  0  0  0  0  0  0  0  0
  -22.1320   13.5940  -27.0490 O   0  0  0  0  0  0  0  0  0  0  0  0
  -20.9660   14.4290  -25.1100 C   0  0  0  0  0  0  0  0  0  0  0  0
  -21.2770   15.8630  -25.0220 N   0  0  0  0  0  0  0  0  0  0  0  0
  -20.2780   16.7750  -24.6750 C   0  0  0  0  0  0  0  0  0  0  0  0
  -19.1100   16.4760  -24.4240 O   0  0  0  0  0  0  0  0  0  0  0  0
  -20.7030   18.2240  -24.6140 C   0  0  0  0  0  0  0  0  0  0  0  0
  -21.9810   18.5270  -24.8900 C   0  0  0  0  0  0  0  0  0  0  0  0
  -22.9460   17.5220  -25.2390 C   0  0  0  0  0  0  0  0  0  0  0  0
  -22.5740   16.2390  -25.2940 C   0  0  0  0  0  0  0  0  0  0  0  0
  -19.7380   19.1270  -24.2770 N   0  0  0  0  0  0  0  0  0  0  0  0
  -19.9430   20.0990  -24.3560 H   0  0  0  0  0  0  0  0  0  0  0  0
  -18.8540   18.7860  -23.9620 H   0  0  0  0  0  0  0  0  0  0  0  0
  -19.0790   16.0640  -28.9400 N   0  0  0  0  0  0  0  0  0  0  0  0
  -18.1170   16.3130  -29.1640 H   0  0  0  0  0  0  0  0  0  0  0  0
  -19.8270   16.8850  -28.1090 C   0  0  0  0  0  0  0  0  0  0  0  0
  -21.0010   16.7020  -27.8010 O   0  0  0  0  0  0  0  0  0  0  0  0
  -19.0410   18.0490  -27.6170 C   0  0  0  0  0  0  0  0  0  0  0  0
  -18.9780   19.1720  -28.3440 C   0  0  0  0  0  0  0  0  0  0  0  0
  -18.2390   20.3320  -27.9300 C   0  0  0  0  0  0  0  0  0  0  0  0
  -18.5340   21.6550  -28.5410 C   0  0  0  0  0  0  0  0  0  0  0  0
  -19.3970   21.8110  -29.3990 O   0  0  0  0  0  0  0  0  0  0  0  0
  -17.7450   22.6770  -28.0480 N   0  0  0  0  0  0  0  0  0  0  0  0
  -17.8810   23.6160  -28.4100 H   0  0  0  0  0  0  0  0  0  0  0  0
  -16.7860   22.4630  -27.0850 C   0  0  0  0  0  0  0  0  0  0  0  0
  -16.5210   21.3170  -26.5470 N   0  0  0  0  0  0  0  0  0  0  0  0
  -17.2760   20.2630  -27.0000 C   0  0  0  0  0  0  0  0  0  0  0  0
  1  2  1  0  0  0  0
  2  3  2  0  0  0  0
  3  4  1  0  0  0  0
  4  5  1  0  0  0  0
  5 10  1  1  0  0  0
  6 25  1  1  0  0  0
  6  5  1  0  0  0  0
  7  3  1  0  0  0  0
  7  6  1  0  0  0  0
  8  7  2  0  0  0  0
  9  1  2  0  0  0  0
  9  8  1  0  0  0  0
 10 11  1  0  0  0  0
 10 12  1  0  0  0  0
 12 14  1  0  0  0  0
 13 12  2  0  0  0  0
 14 15  1  0  0  0  0
 15 16  1  0  0  0  0
 16 18  1  0  0  0  0
 16 17  2  0  0  0  0
 18 22  1  0  0  0  0
 19 18  2  0  0  0  0
 20 19  1  0  0  0  0
 21 20  2  0  0  0  0
 21 15  1  0  0  0  0
 22 24  1  0  0  0  0
 23 22  1  0  0  0  0
 25 27  1  0  0  0  0
 26 25  1  0  0  0  0
 27 28  2  0  0  0  0
 27 29  1  0  0  0  0
 30 31  1  0  0  0  0
 30 29  2  0  0  0  0
 31 38  2  0  0  0  0
 32 34  1  0  0  0  0
 32 31  1  0  0  0  0
 33 32  2  0  0  0  0
 34 36  1  0  0  0  0
 35 34  1  0  0  0  0
 36 37  2  0  0  0  0
 38 37  1  0  0  0  0
M  END
>  <ADSCOR>
   -9.29

$$$$
54
 OpenBabel08042116023D

 40 43  0  0  1  0  0  0  0  0999 V2000
  -19.1670   18.9840  -26.5730 C   0  0  1  0  0  0  0  0  0  0  0  0
  -17.5610   24.8110  -24.1350 C   0  0  0  0  0  0  0  0  0  0  0  0
  -16.8630   23.9550  -24.9880 C   0  0  0  0  0  0  0  0  0  0  0  0
  -17.4200   22.7290  -25.3850 C   0  0  0  0  0  0  0  0  0  0  0  0
  -18.7020   22.3650  -24.9110 C   0  0  0  0  0  0  0  0  0  0  0  0
  -19.2590   21.1380  -25.3090 C   0  0  0  0  0  0  0  0  0  0  0  0
  -18.5610   20.2820  -26.1620 C   0  0  0  0  0  0  0  0  0  0  0  0
  -17.2990   20.6400  -26.6280 C   0  0  0  0  0  0  0  0  0  0  0  0
  -19.3910   23.2380  -24.0540 C   0  0  0  0  0  0  0  0  0  0  0  0
  -16.7310   21.8550  -26.2430 C   0  0  0  0  0  0  0  0  0  0  0  0
  -18.8220   24.4530  -23.6680 C   0  0  0  0  0  0  0  0  0  0  0  0
  -19.3730   18.0850  -25.4180 N   0  0  0  0  0  0  0  0  0  0  0  0
  -19.3880   18.5250  -24.5180 H   0  0  0  0  0  0  0  0  0  0  0  0
  -19.5710   16.7450  -25.5950 C   0  0  0  0  0  0  0  0  0  0  0  0
  -19.6030   16.1450  -26.6660 O   0  0  0  0  0  0  0  0  0  0  0  0
  -19.7590   16.0610  -24.2850 C   0  0  0  0  0  0  0  0  0  0  0  0
  -20.9790   15.6620  -23.9040 C   0  0  0  0  0  0  0  0  0  0  0  0
  -21.2290   14.9990  -22.6560 C   0  0  0  0  0  0  0  0  0  0  0  0
  -20.5570   13.7070  -22.3540 C   0  0  0  0  0  0  0  0  0  0  0  0
  -19.7790   13.1680  -23.1340 O   0  0  0  0  0  0  0  0  0  0  0  0
  -20.8950   13.1870  -21.1190 N   0  0  0  0  0  0  0  0  0  0  0  0
  -20.4800   12.3050  -20.8320 H   0  0  0  0  0  0  0  0  0  0  0  0
  -21.7730   13.8210  -20.2710 C   0  0  0  0  0  0  0  0  0  0  0  0
  -22.3630   14.9430  -20.5220 N   0  0  0  0  0  0  0  0  0  0  0  0
  -22.0650   15.5090  -21.7390 C   0  0  0  0  0  0  0  0  0  0  0  0
  -20.5020   19.1230  -27.3430 C   0  0  0  0  0  0  0  0  0  0  0  0
  -20.8030   17.9370  -28.1020 N   0  0  0  0  0  0  0  0  0  0  0  0
  -21.3270   17.1920  -27.6460 H   0  0  0  0  0  0  0  0  0  0  0  0
  -20.4180   17.7560  -29.4260 C   0  0  0  0  0  0  0  0  0  0  0  0
  -19.7860   18.5690  -30.0940 O   0  0  0  0  0  0  0  0  0  0  0  0
  -20.8690   16.4190  -29.9560 C   0  0  0  0  0  0  0  0  0  0  0  0
  -20.2220   15.3420  -29.1930 N   0  0  0  0  0  0  0  0  0  0  0  0
  -18.8520   15.2350  -29.2570 N   0  0  0  0  0  0  0  0  0  0  0  0
  -18.3590   15.9100  -29.8340 H   0  0  0  0  0  0  0  0  0  0  0  0
  -18.1640   14.2650  -28.5770 C   0  0  0  0  0  0  0  0  0  0  0  0
  -16.9420   14.1420  -28.6110 O   0  0  0  0  0  0  0  0  0  0  0  0
  -18.9750   13.3340  -27.7680 C   0  0  0  0  0  0  0  0  0  0  0  0
  -20.3010   13.4480  -27.7150 C   0  0  0  0  0  0  0  0  0  0  0  0
  -21.0160   14.5070  -28.4600 C   0  0  0  0  0  0  0  0  0  0  0  0
  -22.2420   14.5680  -28.3770 O   0  0  0  0  0  0  0  0  0  0  0  0
  1 26  1  1  0  0  0
  1  7  1  0  0  0  0
  1 12  1  0  0  0  0
  2 11  2  0  0  0  0
  3  2  1  0  0  0  0
  4  3  2  0  0  0  0
  4  5  1  0  0  0  0
  5  9  2  0  0  0  0
  6  5  1  0  0  0  0
  7  6  2  0  0  0  0
  8 10  2  0  0  0  0
  8  7  1  0  0  0  0
  9 11  1  0  0  0  0
 10  4  1  0  0  0  0
 12 13  1  0  0  0  0
 14 12  1  0  0  0  0
 14 16  1  0  0  0  0
 15 14  2  0  0  0  0
 16 17  2  0  0  0  0
 17 18  1  0  0  0  0
 18 19  1  0  0  0  0
 18 25  2  0  0  0  0
 19 21  1  0  0  0  0
 20 19  2  0  0  0  0
 21 22  1  0  0  0  0
 21 23  1  0  0  0  0
 24 23  2  0  0  0  0
 25 24  1  0  0  0  0
 27 28  1  0  0  0  0
 27 26  1  0  0  0  0
 29 27  1  0  0  0  0
 30 29  2  0  0  0  0
 31 29  1  0  0  0  0
 31 32  1  0  0  0  0
 32 39  1  0  0  0  0
 33 32  1  0  0  0  0
 33 35  1  0  0  0  0
 34 33  1  0  0  0  0
 35 37  1  0  0  0  0
 36 35  2  0  0  0  0
 37 38  2  0  0  0  0
 39 40  2  0  0  0  0
 39 38  1  0  0  0  0
M  END
>  <ADSCOR>
   -8.95

$$$$
55
 OpenBabel08042116023D

 43 46  0  0  1  0  0  0  0  0999 V2000
  -20.0610   19.3120  -29.0520 C   0  0  1  0  0  0  0  0  0  0  0  0
  -21.8240   13.1120  -30.0130 C   0  0  0  0  0  0  0  0  0  0  0  0
  -20.6580   13.6550  -29.4760 C   0  0  0  0  0  0  0  0  0  0  0  0
  -20.4990   15.0460  -29.3670 C   0  0  0  0  0  0  0  0  0  0  0  0
  -21.5390   15.8980  -29.8090 C   0  0  0  0  0  0  0  0  0  0  0  0
  -21.3810   17.2900  -29.6990 C   0  0  0  0  0  0  0  0  0  0  0  0
  -20.2130   17.8330  -29.1610 C   0  0  0  0  0  0  0  0  0  0  0  0
  -19.1900   16.9950  -28.7270 C   0  0  0  0  0  0  0  0  0  0  0  0
  -22.7070   15.3340  -30.3470 C   0  0  0  0  0  0  0  0  0  0  0  0
  -19.3310   15.6110  -28.8280 C   0  0  0  0  0  0  0  0  0  0  0  0
  -22.8470   13.9500  -30.4480 C   0  0  0  0  0  0  0  0  0  0  0  0
  -20.6040   20.0080  -30.2390 N   0  0  0  0  0  0  0  0  0  0  0  0
  -21.1040   19.4370  -30.8900 H   0  0  0  0  0  0  0  0  0  0  0  0
  -20.4540   21.3580  -30.3920 C   0  0  0  0  0  0  0  0  0  0  0  0
  -19.8860   22.1240  -29.6200 O   0  0  0  0  0  0  0  0  0  0  0  0
  -21.0880   21.8170  -31.6590 C   0  0  0  0  0  0  0  0  0  0  0  0
  -21.7050   23.0040  -31.7080 C   0  0  0  0  0  0  0  0  0  0  0  0
  -22.3380   23.5090  -32.8950 C   0  0  0  0  0  0  0  0  0  0  0  0
  -22.1040   24.9140  -33.3200 C   0  0  0  0  0  0  0  0  0  0  0  0
  -21.3800   25.6830  -32.6960 O   0  0  0  0  0  0  0  0  0  0  0  0
  -22.7770   25.2580  -34.4770 N   0  0  0  0  0  0  0  0  0  0  0  0
  -22.6730   26.2020  -34.8390 H   0  0  0  0  0  0  0  0  0  0  0  0
  -23.5810   24.3670  -35.1500 C   0  0  0  0  0  0  0  0  0  0  0  0
  -23.7920   23.1440  -34.7900 N   0  0  0  0  0  0  0  0  0  0  0  0
  -23.1470   22.7440  -33.6450 C   0  0  0  0  0  0  0  0  0  0  0  0
  -20.7000   19.9230  -27.7810 C   0  0  0  0  0  0  0  0  0  0  0  0
  -20.5990   19.0300  -26.6560 N   0  0  0  0  0  0  0  0  0  0  0  0
  -21.4280   18.5000  -26.3930 H   0  0  0  0  0  0  0  0  0  0  0  0
  -19.4130   18.8470  -25.9590 C   0  0  0  0  0  0  0  0  0  0  0  0
  -18.3500   19.4030  -26.2110 O   0  0  0  0  0  0  0  0  0  0  0  0
  -19.5660   17.8720  -24.8430 C   0  0  0  0  0  0  0  0  0  0  0  0
  -19.6770   16.5630  -25.1060 C   0  0  0  0  0  0  0  0  0  0  0  0
  -19.8270   15.5700  -24.0800 C   0  0  0  0  0  0  0  0  0  0  0  0
  -19.8790   14.1230  -24.4320 C   0  0  0  0  0  0  0  0  0  0  0  0
  -19.7980   13.7240  -25.5900 O   0  0  0  0  0  0  0  0  0  0  0  0
  -20.0270   13.2880  -23.3390 N   0  0  0  0  0  0  0  0  0  0  0  0
  -20.0710   12.2870  -23.5070 H   0  0  0  0  0  0  0  0  0  0  0  0
  -20.1200   13.7360  -22.0280 C   0  0  0  0  0  0  0  0  0  0  0  0
  -20.2630   12.7620  -21.0750 N   0  0  0  0  0  0  0  0  0  0  0  0
  -20.2920   11.8140  -21.3700 H   0  0  0  0  0  0  0  0  0  0  0  0
  -20.3330   13.0410  -20.1230 H   0  0  0  0  0  0  0  0  0  0  0  0
  -20.0720   15.0050  -21.7340 N   0  0  0  0  0  0  0  0  0  0  0  0
  -19.9260   15.8820  -22.7790 C   0  0  0  0  0  0  0  0  0  0  0  0
  1 26  1  1  0  0  0
  2  3  2  0  0  0  0
  3  4  1  0  0  0  0
  4 10  2  0  0  0  0
  5  6  2  0  0  0  0
  5  4  1  0  0  0  0
  6  7  1  0  0  0  0
  7  1  1  0  0  0  0
  7  8  2  0  0  0  0
  9  5  1  0  0  0  0
 10  8  1  0  0  0  0
 11  9  2  0  0  0  0
 11  2  1  0  0  0  0
 12  1  1  0  0  0  0
 13 12  1  0  0  0  0
 14 12  1  0  0  0  0
 14 15  2  0  0  0  0
 16 14  1  0  0  0  0
 17 16  2  0  0  0  0
 18 17  1  0  0  0  0
 19 18  1  0  0  0  0
 19 20  2  0  0  0  0
 21 19  1  0  0  0  0
 22 21  1  0  0  0  0
 23 24  2  0  0  0  0
 23 21  1  0  0  0  0
 24 25  1  0  0  0  0
 25 18  2  0  0  0  0
 26 27  1  0  0  0  0
 27 28  1  0  0  0  0
 27 29  1  0  0  0  0
 29 31  1  0  0  0  0
 30 29  2  0  0  0  0
 32 31  2  0  0  0  0
 32 33  1  0  0  0  0
 33 43  2  0  0  0  0
 34 33  1  0  0  0  0
 34 36  1  0  0  0  0
 35 34  2  0  0  0  0
 36 38  1  0  0  0  0
 37 36  1  0  0  0  0
 38 42  2  0  0  0  0
 38 39  1  0  0  0  0
 39 41  1  0  0  0  0
 40 39  1  0  0  0  0
 43 42  1  0  0  0  0
M  END
>  <ADSCOR>
   -9.95

$$$$
56
 OpenBabel08042116023D

 39 42  0  0  1  0  0  0  0  0999 V2000
  -21.5280   15.0110  -20.5740 C   0  0  0  0  0  0  0  0  0  0  0  0
  -21.3390   16.1310  -21.3860 C   0  0  0  0  0  0  0  0  0  0  0  0
  -20.8070   15.9430  -22.6510 C   0  0  0  0  0  0  0  0  0  0  0  0
  -20.5500   16.9770  -23.7030 C   0  0  0  0  0  0  0  0  0  0  0  0
  -19.5920   16.2120  -24.6360 C   0  0  1  0  0  0  0  0  0  0  0  0
  -19.9630   14.7130  -24.5220 C   0  0  1  0  0  0  0  0  0  0  0  0
  -20.4810   14.6610  -23.1150 C   0  0  0  0  0  0  0  0  0  0  0  0
  -20.6730   13.5450  -22.3170 C   0  0  0  0  0  0  0  0  0  0  0  0
  -21.1970   13.7270  -21.0360 C   0  0  0  0  0  0  0  0  0  0  0  0
  -19.6030   16.7290  -25.9770 N   0  0  0  0  0  0  0  0  0  0  0  0
  -19.9450   16.1230  -26.7210 H   0  0  0  0  0  0  0  0  0  0  0  0
  -19.2050   18.0250  -26.2770 C   0  0  0  0  0  0  0  0  0  0  0  0
  -18.8110   18.8510  -25.4610 O   0  0  0  0  0  0  0  0  0  0  0  0
  -19.3110   18.3210  -27.7330 C   0  0  0  0  0  0  0  0  0  0  0  0
  -19.9860   19.4000  -28.1500 C   0  0  0  0  0  0  0  0  0  0  0  0
  -20.1290   19.7450  -29.5370 C   0  0  0  0  0  0  0  0  0  0  0  0
  -19.7890   21.1140  -30.0010 C   0  0  0  0  0  0  0  0  0  0  0  0
  -19.3800   21.9870  -29.2410 O   0  0  0  0  0  0  0  0  0  0  0  0
  -19.9770   21.3000  -31.3580 N   0  0  0  0  0  0  0  0  0  0  0  0
  -19.7620   22.2140  -31.7450 H   0  0  0  0  0  0  0  0  0  0  0  0
  -20.4370   20.2980  -32.1880 C   0  0  0  0  0  0  0  0  0  0  0  0
  -20.7370   19.1020  -31.7850 N   0  0  0  0  0  0  0  0  0  0  0  0
  -20.5840   20.6700  -33.6340 C   0  0  0  0  0  0  0  0  0  0  0  0
  -20.5680   18.8600  -30.4440 C   0  0  0  0  0  0  0  0  0  0  0  0
  -20.9640   14.2890  -25.4650 N   0  0  0  0  0  0  0  0  0  0  0  0
  -20.8530   13.3830  -25.9130 H   0  0  0  0  0  0  0  0  0  0  0  0
  -22.0750   15.0550  -25.7920 C   0  0  0  0  0  0  0  0  0  0  0  0
  -22.3290   16.1650  -25.3240 O   0  0  0  0  0  0  0  0  0  0  0  0
  -22.9770   14.3890  -26.8120 C   0  0  0  0  0  0  0  0  0  0  0  0
  -22.1460   13.8420  -27.9180 C   0  0  0  0  0  0  0  0  0  0  0  0
  -22.6780   12.8060  -28.6500 N   0  0  0  0  0  0  0  0  0  0  0  0
  -23.6030   12.4680  -28.3980 H   0  0  0  0  0  0  0  0  0  0  0  0
  -22.0240   12.1960  -29.7090 C   0  0  0  0  0  0  0  0  0  0  0  0
  -22.5150   11.2690  -30.3530 O   0  0  0  0  0  0  0  0  0  0  0  0
  -20.7600   12.7180  -29.9880 N   0  0  0  0  0  0  0  0  0  0  0  0
  -20.2460   12.2980  -30.7560 H   0  0  0  0  0  0  0  0  0  0  0  0
  -20.1410   13.7580  -29.3090 C   0  0  0  0  0  0  0  0  0  0  0  0
  -19.0260   14.1940  -29.5810 O   0  0  0  0  0  0  0  0  0  0  0  0
  -20.9310   14.3340  -28.1970 C   0  0  0  0  0  0  0  0  0  0  0  0
  2  1  2  0  0  0  0
  3  2  1  0  0  0  0
  4  3  1  0  0  0  0
  5 10  1  6  0  0  0
  5  6  1  0  0  0  0
  5  4  1  0  0  0  0
  6 25  1  6  0  0  0
  6  7  1  0  0  0  0
  7  3  2  0  0  0  0
  7  8  1  0  0  0  0
  8  9  2  0  0  0  0
  9  1  1  0  0  0  0
 11 10  1  0  0  0  0
 12 10  1  0  0  0  0
 12 13  2  0  0  0  0
 14 12  1  0  0  0  0
 15 14  2  0  0  0  0
 16 15  1  0  0  0  0
 17 16  1  0  0  0  0
 17 18  2  0  0  0  0
 19 17  1  0  0  0  0
 20 19  1  0  0  0  0
 21 22  2  0  0  0  0
 21 19  1  0  0  0  0
 22 24  1  0  0  0  0
 23 21  1  0  0  0  0
 24 16  2  0  0  0  0
 26 25  1  0  0  0  0
 27 25  1  0  0  0  0
 27 28  2  0  0  0  0
 29 27  1  0  0  0  0
 30 29  1  0  0  0  0
 31 32  1  0  0  0  0
 31 30  1  0  0  0  0
 33 31  1  0  0  0  0
 34 33  2  0  0  0  0
 35 33  1  0  0  0  0
 35 37  1  0  0  0  0
 36 35  1  0  0  0  0
 37 39  1  0  0  0  0
 38 37  2  0  0  0  0
 39 30  2  0  0  0  0
M  END
>  <ADSCOR>
   -9.88

$$$$
57
 OpenBabel08042116023D

 39 42  0  0  1  0  0  0  0  0999 V2000
  -21.2570   18.9370  -27.6830 C   0  0  1  0  0  0  0  0  0  0  0  0
  -16.5240   22.8550  -25.5090 C   0  0  0  0  0  0  0  0  0  0  0  0
  -16.4620   21.6750  -26.2490 C   0  0  0  0  0  0  0  0  0  0  0  0
  -17.6350   20.9920  -26.6080 C   0  0  0  0  0  0  0  0  0  0  0  0
  -18.8890   21.5140  -26.2100 C   0  0  0  0  0  0  0  0  0  0  0  0
  -20.0630   20.8310  -26.5700 C   0  0  0  0  0  0  0  0  0  0  0  0
  -20.0010   19.6500  -27.3100 C   0  0  0  0  0  0  0  0  0  0  0  0
  -18.7670   19.1360  -27.7010 C   0  0  0  0  0  0  0  0  0  0  0  0
  -18.9330   22.7030  -25.4660 C   0  0  0  0  0  0  0  0  0  0  0  0
  -17.5910   19.8020  -27.3530 C   0  0  0  0  0  0  0  0  0  0  0  0
  -17.7560   23.3690  -25.1180 C   0  0  0  0  0  0  0  0  0  0  0  0
  -21.2080   18.4320  -29.0720 N   0  0  0  0  0  0  0  0  0  0  0  0
  -20.9520   17.4770  -29.2310 H   0  0  0  0  0  0  0  0  0  0  0  0
  -21.5010   19.2280  -30.1470 C   0  0  0  0  0  0  0  0  0  0  0  0
  -21.8300   20.4110  -30.1090 O   0  0  0  0  0  0  0  0  0  0  0  0
  -21.3650   18.4460  -31.4280 C   0  0  0  0  0  0  0  0  0  0  0  0
  -22.4870   17.5030  -31.5530 N   0  0  0  0  0  0  0  0  0  0  0  0
  -23.5590   17.8740  -32.3310 N   0  0  0  0  0  0  0  0  0  0  0  0
  -23.5190   18.7840  -32.7790 H   0  0  0  0  0  0  0  0  0  0  0  0
  -24.6480   17.0580  -32.5050 C   0  0  0  0  0  0  0  0  0  0  0  0
  -25.6210   17.3570  -33.1940 O   0  0  0  0  0  0  0  0  0  0  0  0
  -24.6080   15.7580  -31.8110 C   0  0  0  0  0  0  0  0  0  0  0  0
  -23.5640   15.4120  -31.0580 C   0  0  0  0  0  0  0  0  0  0  0  0
  -22.4040   16.3130  -30.8890 C   0  0  0  0  0  0  0  0  0  0  0  0
  -21.4630   15.9460  -30.1850 O   0  0  0  0  0  0  0  0  0  0  0  0
  -21.6250   17.7670  -26.7390 C   0  0  0  0  0  0  0  0  0  0  0  0
  -20.9410   16.5540  -27.1050 N   0  0  0  0  0  0  0  0  0  0  0  0
  -20.9390   16.2770  -28.0840 H   0  0  0  0  0  0  0  0  0  0  0  0
  -20.2860   15.7440  -26.1870 C   0  0  0  0  0  0  0  0  0  0  0  0
  -20.2130   15.9630  -24.9790 O   0  0  0  0  0  0  0  0  0  0  0  0
  -19.6490   14.5230  -26.8210 C   0  0  0  0  0  0  0  0  0  0  0  0
  -20.6420   13.8550  -27.7050 C   0  0  0  0  0  0  0  0  0  0  0  0
  -21.8670   13.4890  -27.2980 C   0  0  0  0  0  0  0  0  0  0  0  0
  -22.7470   12.8760  -28.1540 N   0  0  0  0  0  0  0  0  0  0  0  0
  -23.6590   12.6210  -27.7860 H   0  0  0  0  0  0  0  0  0  0  0  0
  -22.4550   12.5880  -29.4770 C   0  0  0  0  0  0  0  0  0  0  0  0
  -23.2340   12.0390  -30.2520 O   0  0  0  0  0  0  0  0  0  0  0  0
  -21.0950   12.9930  -29.9360 C   0  0  0  0  0  0  0  0  0  0  0  0
  -20.2570   13.5900  -29.0770 C   0  0  0  0  0  0  0  0  0  0  0  0
  1  7  1  0  0  0  0
  1 26  1  1  0  0  0
  2 11  2  0  0  0  0
  3  2  1  0  0  0  0
  4  3  2  0  0  0  0
  4  5  1  0  0  0  0
  5  9  2  0  0  0  0
  6  5  1  0  0  0  0
  7  6  2  0  0  0  0
  8 10  2  0  0  0  0
  8  7  1  0  0  0  0
  9 11  1  0  0  0  0
 10  4  1  0  0  0  0
 12  1  1  0  0  0  0
 13 12  1  0  0  0  0
 14 15  2  0  0  0  0
 14 12  1  0  0  0  0
 16 14  1  0  0  0  0
 17 16  1  0  0  0  0
 17 24  1  0  0  0  0
 18 17  1  0  0  0  0
 19 18  1  0  0  0  0
 20 18  1  0  0  0  0
 20 22  1  0  0  0  0
 21 20  2  0  0  0  0
 22 23  2  0  0  0  0
 23 24  1  0  0  0  0
 24 25  2  0  0  0  0
 27 26  1  0  0  0  0
 27 29  1  0  0  0  0
 28 27  1  0  0  0  0
 29 30  2  0  0  0  0
 31 29  1  0  0  0  0
 32 33  2  0  0  0  0
 32 31  1  0  0  0  0
 34 35  1  0  0  0  0
 34 33  1  0  0  0  0
 36 34  1  0  0  0  0
 37 36  2  0  0  0  0
 38 36  1  0  0  0  0
 38 39  2  0  0  0  0
 39 32  1  0  0  0  0
M  END
>  <ADSCOR>
   -8.27

$$$$
58
 OpenBabel08042116023D

 38 41  0  0  1  0  0  0  0  0999 V2000
  -21.2570   15.0310  -21.3630 C   0  0  0  0  0  0  0  0  0  0  0  0
  -20.8960   16.2490  -21.9420 C   0  0  0  0  0  0  0  0  0  0  0  0
  -20.5480   16.2620  -23.2820 C   0  0  0  0  0  0  0  0  0  0  0  0
  -20.1650   17.4420  -24.1210 C   0  0  0  0  0  0  0  0  0  0  0  0
  -19.5040   16.7430  -25.3240 C   0  0  1  0  0  0  0  0  0  0  0  0
  -20.1960   15.3650  -25.4730 C   0  0  1  0  0  0  0  0  0  0  0  0
  -20.5720   15.0870  -24.0470 C   0  0  0  0  0  0  0  0  0  0  0  0
  -20.9350   13.8770  -23.4810 C   0  0  0  0  0  0  0  0  0  0  0  0
  -21.2750   13.8530  -22.1270 C   0  0  0  0  0  0  0  0  0  0  0  0
  -19.5280   17.5530  -26.5110 N   0  0  0  0  0  0  0  0  0  0  0  0
  -19.9040   17.1420  -27.3640 H   0  0  0  0  0  0  0  0  0  0  0  0
  -19.0970   18.8730  -26.5180 C   0  0  0  0  0  0  0  0  0  0  0  0
  -18.6610   19.4800  -25.5460 O   0  0  0  0  0  0  0  0  0  0  0  0
  -19.2250   19.4970  -27.8640 C   0  0  0  0  0  0  0  0  0  0  0  0
  -20.3430   19.3230  -28.5800 C   0  0  0  0  0  0  0  0  0  0  0  0
  -20.5340   19.8950  -29.8840 C   0  0  0  0  0  0  0  0  0  0  0  0
  -20.4230   21.3650  -30.0720 C   0  0  0  0  0  0  0  0  0  0  0  0
  -20.1700   22.1330  -29.1490 O   0  0  0  0  0  0  0  0  0  0  0  0
  -20.6320   21.7710  -31.3770 N   0  0  0  0  0  0  0  0  0  0  0  0
  -20.5740   22.7610  -31.5940 H   0  0  0  0  0  0  0  0  0  0  0  0
  -20.9150   20.8780  -32.3860 C   0  0  0  0  0  0  0  0  0  0  0  0
  -21.0140   19.5990  -32.2340 N   0  0  0  0  0  0  0  0  0  0  0  0
  -20.8150   19.1380  -30.9550 C   0  0  0  0  0  0  0  0  0  0  0  0
  -21.3550   15.3860  -26.3260 N   0  0  0  0  0  0  0  0  0  0  0  0
  -21.2160   15.2980  -27.3310 H   0  0  0  0  0  0  0  0  0  0  0  0
  -22.6550   15.5200  -25.8490 C   0  0  0  0  0  0  0  0  0  0  0  0
  -22.9640   15.6340  -24.6660 O   0  0  0  0  0  0  0  0  0  0  0  0
  -23.6600   15.5120  -26.9730 C   0  0  0  0  0  0  0  0  0  0  0  0
  -23.0180   15.0280  -28.2040 N   0  0  0  0  0  0  0  0  0  0  0  0
  -22.7560   13.6660  -28.3670 C   0  0  0  0  0  0  0  0  0  0  0  0
  -23.0230   12.7960  -27.5370 O   0  0  0  0  0  0  0  0  0  0  0  0
  -22.0940   13.2740  -29.6660 C   0  0  0  0  0  0  0  0  0  0  0  0
  -21.8110   14.2390  -30.5550 C   0  0  0  0  0  0  0  0  0  0  0  0
  -22.1180   15.6210  -30.3060 C   0  0  0  0  0  0  0  0  0  0  0  0
  -22.7020   15.9710  -29.1570 C   0  0  0  0  0  0  0  0  0  0  0  0
  -21.8310   11.9470  -29.8400 N   0  0  0  0  0  0  0  0  0  0  0  0
  -21.6970   11.6040  -30.7660 H   0  0  0  0  0  0  0  0  0  0  0  0
  -21.7790   11.3610  -29.0350 H   0  0  0  0  0  0  0  0  0  0  0  0
  2  1  1  0  0  0  0
  3  2  2  0  0  0  0
  4  3  1  0  0  0  0
  5 10  1  6  0  0  0
  5  4  1  0  0  0  0
  6 24  1  6  0  0  0
  6  5  1  0  0  0  0
  6  7  1  0  0  0  0
  7  8  2  0  0  0  0
  7  3  1  0  0  0  0
  8  9  1  0  0  0  0
  9  1  2  0  0  0  0
 11 10  1  0  0  0  0
 12 10  1  0  0  0  0
 12 13  2  0  0  0  0
 14 12  1  0  0  0  0
 15 14  2  0  0  0  0
 16 15  1  0  0  0  0
 17 16  1  0  0  0  0
 17 18  2  0  0  0  0
 19 17  1  0  0  0  0
 20 19  1  0  0  0  0
 21 22  2  0  0  0  0
 21 19  1  0  0  0  0
 22 23  1  0  0  0  0
 23 16  2  0  0  0  0
 24 26  1  0  0  0  0
 25 24  1  0  0  0  0
 26 27  2  0  0  0  0
 28 26  1  0  0  0  0
 29 28  1  0  0  0  0
 30 29  1  0  0  0  0
 30 31  2  0  0  0  0
 32 30  1  0  0  0  0
 33 34  1  0  0  0  0
 33 32  2  0  0  0  0
 34 35  2  0  0  0  0
 35 29  1  0  0  0  0
 36 32  1  0  0  0  0
 36 38  1  0  0  0  0
 37 36  1  0  0  0  0
M  END
>  <ADSCOR>
   -7.81

$$$$
59
 OpenBabel08042116023D

 40 44  0  0  1  0  0  0  0  0999 V2000
  -19.6390   17.7630  -25.9320 C   0  0  1  0  0  0  0  0  0  0  0  0
  -18.0770   24.0150  -24.9520 C   0  0  0  0  0  0  0  0  0  0  0  0
  -17.5830   23.0840  -25.8660 C   0  0  0  0  0  0  0  0  0  0  0  0
  -18.0810   21.7710  -25.8920 C   0  0  0  0  0  0  0  0  0  0  0  0
  -19.0950   21.3980  -24.9780 C   0  0  0  0  0  0  0  0  0  0  0  0
  -19.5940   20.0850  -25.0040 C   0  0  0  0  0  0  0  0  0  0  0  0
  -19.0990   19.1540  -25.9170 C   0  0  0  0  0  0  0  0  0  0  0  0
  -18.1010   19.5210  -26.8160 C   0  0  0  0  0  0  0  0  0  0  0  0
  -19.5810   22.3480  -24.0660 C   0  0  0  0  0  0  0  0  0  0  0  0
  -17.5950   20.8210  -26.8040 C   0  0  0  0  0  0  0  0  0  0  0  0
  -19.0740   23.6480  -24.0540 C   0  0  0  0  0  0  0  0  0  0  0  0
  -19.4850   17.1020  -24.6190 N   0  0  0  0  0  0  0  0  0  0  0  0
  -19.3620   17.6680  -23.8020 H   0  0  0  0  0  0  0  0  0  0  0  0
  -19.5030   15.7390  -24.4830 C   0  0  0  0  0  0  0  0  0  0  0  0
  -19.6440   14.9190  -25.3870 O   0  0  0  0  0  0  0  0  0  0  0  0
  -19.3190   15.3560  -23.0370 C   0  0  0  0  0  0  0  0  0  0  0  0
  -20.6310   15.1080  -22.4220 N   0  0  0  0  0  0  0  0  0  0  0  0
  -21.5160   16.1590  -22.3390 N   0  0  0  0  0  0  0  0  0  0  0  0
  -21.2130   17.0540  -22.7090 H   0  0  0  0  0  0  0  0  0  0  0  0
  -22.7620   16.0190  -21.7820 C   0  0  0  0  0  0  0  0  0  0  0  0
  -23.5760   16.9360  -21.6940 O   0  0  0  0  0  0  0  0  0  0  0  0
  -23.1040   14.6780  -21.2730 C   0  0  0  0  0  0  0  0  0  0  0  0
  -22.2370   13.6690  -21.3580 C   0  0  0  0  0  0  0  0  0  0  0  0
  -20.9000   13.8500  -21.9640 C   0  0  0  0  0  0  0  0  0  0  0  0
  -20.1360   12.8860  -22.0200 O   0  0  0  0  0  0  0  0  0  0  0  0
  -21.1210   17.6650  -26.3690 C   0  0  0  0  0  0  0  0  0  0  0  0
  -21.3120   16.6460  -27.3680 N   0  0  0  0  0  0  0  0  0  0  0  0
  -20.7530   16.7110  -28.2150 H   0  0  0  0  0  0  0  0  0  0  0  0
  -22.1570   15.5600  -27.1770 C   0  0  0  0  0  0  0  0  0  0  0  0
  -22.8150   15.3560  -26.1600 O   0  0  0  0  0  0  0  0  0  0  0  0
  -22.2260   14.5820  -28.2930 C   0  0  0  0  0  0  0  0  0  0  0  0
  -22.3310   14.9800  -29.6330 C   0  0  0  0  0  0  0  0  0  0  0  0
  -22.3880   13.9950  -30.6210 C   0  0  0  0  0  0  0  0  0  0  0  0
  -22.4890   14.6370  -31.8330 N   0  0  0  0  0  0  0  0  0  0  0  0
  -22.5480   14.1740  -32.7290 H   0  0  0  0  0  0  0  0  0  0  0  0
  -22.4990   15.9940  -31.6460 C   0  0  0  0  0  0  0  0  0  0  0  0
  -22.3430   12.6410  -30.3140 C   0  0  0  0  0  0  0  0  0  0  0  0
  -22.2400   12.2600  -29.0200 N   0  0  0  0  0  0  0  0  0  0  0  0
  -22.4030   16.2370  -30.2950 C   0  0  0  0  0  0  0  0  0  0  0  0
  -22.1840   13.2130  -28.0620 C   0  0  0  0  0  0  0  0  0  0  0  0
  1 26  1  1  0  0  0
  1  7  1  0  0  0  0
  1 12  1  0  0  0  0
  2 11  2  0  0  0  0
  3  2  1  0  0  0  0
  4  3  2  0  0  0  0
  4  5  1  0  0  0  0
  5  9  2  0  0  0  0
  6  5  1  0  0  0  0
  7  6  2  0  0  0  0
  8 10  2  0  0  0  0
  8  7  1  0  0  0  0
  9 11  1  0  0  0  0
 10  4  1  0  0  0  0
 12 14  1  0  0  0  0
 12 13  1  0  0  0  0
 14 16  1  0  0  0  0
 15 14  2  0  0  0  0
 16 17  1  0  0  0  0
 17 18  1  0  0  0  0
 17 24  1  0  0  0  0
 18 20  1  0  0  0  0
 19 18  1  0  0  0  0
 20 21  2  0  0  0  0
 20 22  1  0  0  0  0
 23 22  2  0  0  0  0
 24 23  1  0  0  0  0
 25 24  2  0  0  0  0
 27 29  1  0  0  0  0
 27 26  1  0  0  0  0
 28 27  1  0  0  0  0
 29 30  2  0  0  0  0
 31 40  1  0  0  0  0
 31 29  1  0  0  0  0
 32 31  2  0  0  0  0
 33 37  2  0  0  0  0
 33 32  1  0  0  0  0
 34 36  1  0  0  0  0
 34 33  1  0  0  0  0
 35 34  1  0  0  0  0
 36 39  2  0  0  0  0
 37 38  1  0  0  0  0
 38 40  2  0  0  0  0
 39 32  1  0  0  0  0
M  END
>  <ADSCOR>
   -10.02

$$$$
6
 OpenBabel08042116023D

 38 41  0  0  1  0  0  0  0  0999 V2000
  -21.8750   12.3980  -30.3950 C   0  0  0  0  0  0  0  0  0  0  0  0
  -20.8180   12.8040  -29.5820 C   0  0  0  0  0  0  0  0  0  0  0  0
  -20.9680   13.9090  -28.7380 C   0  0  0  0  0  0  0  0  0  0  0  0
  -19.8610   14.3630  -27.8330 C   0  0  0  0  0  0  0  0  0  0  0  0
  -19.8160   15.8870  -27.7580 C   0  0  0  0  0  0  0  0  0  0  0  0
  -21.1190   16.5450  -27.5440 N   0  0  0  0  0  0  0  0  0  0  0  0
  -22.3580   15.7520  -27.7300 C   0  0  1  0  0  0  0  0  0  0  0  0
  -21.2490   17.8970  -27.2000 C   0  0  0  0  0  0  0  0  0  0  0  0
  -22.3220   18.4720  -27.0150 O   0  0  0  0  0  0  0  0  0  0  0  0
  -22.1890   14.5980  -28.6920 C   0  0  0  0  0  0  0  0  0  0  0  0
  -23.2470   14.1770  -29.5080 C   0  0  0  0  0  0  0  0  0  0  0  0
  -23.0880   13.0850  -30.3600 C   0  0  0  0  0  0  0  0  0  0  0  0
  -20.0080   18.6870  -27.0600 C   0  0  0  0  0  0  0  0  0  0  0  0
  -19.9080   19.8420  -27.7270 C   0  0  0  0  0  0  0  0  0  0  0  0
  -18.7460   20.6830  -27.6620 C   0  0  0  0  0  0  0  0  0  0  0  0
  -18.6030   21.8260  -28.6020 C   0  0  0  0  0  0  0  0  0  0  0  0
  -19.4480   22.0950  -29.4500 O   0  0  0  0  0  0  0  0  0  0  0  0
  -17.4360   22.5440  -28.4210 N   0  0  0  0  0  0  0  0  0  0  0  0
  -17.2580   23.3440  -29.0230 H   0  0  0  0  0  0  0  0  0  0  0  0
  -16.5120   22.2120  -27.4590 C   0  0  0  0  0  0  0  0  0  0  0  0
  -16.6240   21.2210  -26.6360 N   0  0  0  0  0  0  0  0  0  0  0  0
  -17.7670   20.4710  -26.7680 C   0  0  0  0  0  0  0  0  0  0  0  0
  -22.8890   15.2570  -26.3790 C   0  0  0  0  0  0  0  0  0  0  0  0
  -22.0560   15.7610  -25.2130 C   0  0  0  0  0  0  0  0  0  0  0  0
  -21.4960   14.6920  -24.4330 N   0  0  0  0  0  0  0  0  0  0  0  0
  -21.8560   13.7490  -24.5770 H   0  0  0  0  0  0  0  0  0  0  0  0
  -20.4880   14.8750  -23.4890 C   0  0  0  0  0  0  0  0  0  0  0  0
  -19.9660   15.9530  -23.2180 O   0  0  0  0  0  0  0  0  0  0  0  0
  -20.1030   13.5760  -22.8260 C   0  0  0  0  0  0  0  0  0  0  0  0
  -20.7890   13.4630  -21.5310 N   0  0  0  0  0  0  0  0  0  0  0  0
  -22.1630   13.5240  -21.5170 N   0  0  0  0  0  0  0  0  0  0  0  0
  -22.6340   13.6440  -22.4090 H   0  0  0  0  0  0  0  0  0  0  0  0
  -22.8850   13.4240  -20.3560 C   0  0  0  0  0  0  0  0  0  0  0  0
  -24.1120   13.4720  -20.3080 O   0  0  0  0  0  0  0  0  0  0  0  0
  -22.1060   13.2510  -19.1140 C   0  0  0  0  0  0  0  0  0  0  0  0
  -20.7760   13.1970  -19.1420 C   0  0  0  0  0  0  0  0  0  0  0  0
  -20.0240   13.3060  -20.4110 C   0  0  0  0  0  0  0  0  0  0  0  0
  -18.7950   13.2480  -20.3810 O   0  0  0  0  0  0  0  0  0  0  0  0
  1 12  2  0  0  0  0
  1  2  1  0  0  0  0
  2  3  2  0  0  0  0
  3 10  1  0  0  0  0
  3  4  1  0  0  0  0
  4  5  1  0  0  0  0
  5  6  1  0  0  0  0
  6  8  1  0  0  0  0
  7  6  1  0  0  0  0
  7 23  1  1  0  0  0
  8 13  1  0  0  0  0
  8  9  2  0  0  0  0
 10  7  1  0  0  0  0
 11 10  2  0  0  0  0
 12 11  1  0  0  0  0
 14 15  1  0  0  0  0
 14 13  2  0  0  0  0
 15 22  2  0  0  0  0
 16 18  1  0  0  0  0
 16 15  1  0  0  0  0
 17 16  2  0  0  0  0
 18 20  1  0  0  0  0
 19 18  1  0  0  0  0
 20 21  2  0  0  0  0
 22 21  1  0  0  0  0
 23 24  1  0  0  0  0
 24 25  1  0  0  0  0
 25 27  1  0  0  0  0
 26 25  1  0  0  0  0
 27 28  2  0  0  0  0
 27 29  1  0  0  0  0
 29 30  1  0  0  0  0
 30 31  1  0  0  0  0
 30 37  1  0  0  0  0
 31 33  1  0  0  0  0
 32 31  1  0  0  0  0
 33 34  2  0  0  0  0
 33 35  1  0  0  0  0
 36 35  2  0  0  0  0
 37 38  2  0  0  0  0
 37 36  1  0  0  0  0
M  END
>  <ADSCOR>
   -9.15

$$$$
60
 OpenBabel08042116023D

 39 42  0  0  1  0  0  0  0  0999 V2000
  -20.9060   12.6150  -29.6910 C   0  0  0  0  0  0  0  0  0  0  0  0
  -20.0760   13.7140  -29.4630 C   0  0  0  0  0  0  0  0  0  0  0  0
  -20.5590   14.7510  -28.6820 C   0  0  0  0  0  0  0  0  0  0  0  0
  -19.8660   16.0330  -28.3360 C   0  0  0  0  0  0  0  0  0  0  0  0
  -20.7050   16.4970  -27.1320 C   0  0  2  0  0  0  0  0  0  0  0  0
  -22.1430   15.9800  -27.3790 C   0  0  1  0  0  0  0  0  0  0  0  0
  -21.8500   14.7130  -28.1380 C   0  0  0  0  0  0  0  0  0  0  0  0
  -22.6830   13.6280  -28.3720 C   0  0  0  0  0  0  0  0  0  0  0  0
  -22.2000   12.5720  -29.1490 C   0  0  0  0  0  0  0  0  0  0  0  0
  -20.6510   17.9200  -26.9380 N   0  0  0  0  0  0  0  0  0  0  0  0
  -20.4860   18.2730  -25.9960 H   0  0  0  0  0  0  0  0  0  0  0  0
  -20.8120   18.8430  -27.9680 C   0  0  0  0  0  0  0  0  0  0  0  0
  -21.0150   18.5560  -29.1440 O   0  0  0  0  0  0  0  0  0  0  0  0
  -20.7100   20.2610  -27.4650 C   0  0  0  0  0  0  0  0  0  0  0  0
  -19.3050   20.6930  -27.4900 N   0  0  0  0  0  0  0  0  0  0  0  0
  -18.9370   21.6410  -28.4170 N   0  0  0  0  0  0  0  0  0  0  0  0
  -19.6590   21.9930  -29.0370 H   0  0  0  0  0  0  0  0  0  0  0  0
  -17.6500   22.1050  -28.5110 C   0  0  0  0  0  0  0  0  0  0  0  0
  -17.2860   22.9510  -29.3250 O   0  0  0  0  0  0  0  0  0  0  0  0
  -16.6770   21.5290  -27.5640 C   0  0  0  0  0  0  0  0  0  0  0  0
  -17.0470   20.6090  -26.6730 C   0  0  0  0  0  0  0  0  0  0  0  0
  -18.4430   20.1300  -26.5940 C   0  0  0  0  0  0  0  0  0  0  0  0
  -18.7340   19.2800  -25.7530 O   0  0  0  0  0  0  0  0  0  0  0  0
  -22.9240   15.7880  -26.0860 C   0  0  0  0  0  0  0  0  0  0  0  0
  -22.2160   16.3780  -24.9980 N   0  0  0  0  0  0  0  0  0  0  0  0
  -22.3380   17.3810  -24.8210 H   0  0  0  0  0  0  0  0  0  0  0  0
  -21.3970   15.6440  -24.1420 C   0  0  0  0  0  0  0  0  0  0  0  0
  -21.1980   14.4360  -24.2280 O   0  0  0  0  0  0  0  0  0  0  0  0
  -20.7740   16.4860  -23.0840 C   0  0  0  0  0  0  0  0  0  0  0  0
  -21.2680   17.7030  -22.8180 C   0  0  0  0  0  0  0  0  0  0  0  0
  -20.7160   18.5680  -21.8120 C   0  0  0  0  0  0  0  0  0  0  0  0
  -19.9750   19.7910  -22.2120 C   0  0  0  0  0  0  0  0  0  0  0  0
  -19.8070   20.1090  -23.3850 O   0  0  0  0  0  0  0  0  0  0  0  0
  -19.5010   20.5250  -21.1400 N   0  0  0  0  0  0  0  0  0  0  0  0
  -18.9840   21.3770  -21.3400 H   0  0  0  0  0  0  0  0  0  0  0  0
  -19.7060   20.1410  -19.8300 C   0  0  0  0  0  0  0  0  0  0  0  0
  -20.3510   19.0730  -19.4780 N   0  0  0  0  0  0  0  0  0  0  0  0
  -19.1230   21.0520  -18.7890 C   0  0  0  0  0  0  0  0  0  0  0  0
  -20.8460   18.3050  -20.5050 C   0  0  0  0  0  0  0  0  0  0  0  0
  1  2  2  0  0  0  0
  1  9  1  0  0  0  0
  2  3  1  0  0  0  0
  3  4  1  0  0  0  0
  3  7  2  0  0  0  0
  4  5  1  0  0  0  0
  5 10  1  6  0  0  0
  6  5  1  0  0  0  0
  6 24  1  1  0  0  0
  7  6  1  0  0  0  0
  8  7  1  0  0  0  0
  9  8  2  0  0  0  0
 10 11  1  0  0  0  0
 12 14  1  0  0  0  0
 12 10  1  0  0  0  0
 13 12  2  0  0  0  0
 15 14  1  0  0  0  0
 15 22  1  0  0  0  0
 16 15  1  0  0  0  0
 17 16  1  0  0  0  0
 18 16  1  0  0  0  0
 18 20  1  0  0  0  0
 19 18  2  0  0  0  0
 20 21  2  0  0  0  0
 21 22  1  0  0  0  0
 22 23  2  0  0  0  0
 24 25  1  0  0  0  0
 25 26  1  0  0  0  0
 25 27  1  0  0  0  0
 27 29  1  0  0  0  0
 28 27  2  0  0  0  0
 29 30  2  0  0  0  0
 30 31  1  0  0  0  0
 31 39  2  0  0  0  0
 32 31  1  0  0  0  0
 32 34  1  0  0  0  0
 33 32  2  0  0  0  0
 34 36  1  0  0  0  0
 35 34  1  0  0  0  0
 36 37  2  0  0  0  0
 36 38  1  0  0  0  0
 39 37  1  0  0  0  0
M  END
>  <ADSCOR>
   -8.67

$$$$
61
 OpenBabel08042116023D

 40 43  0  0  1  0  0  0  0  0999 V2000
  -19.6210   15.1170  -24.8450 C   0  0  1  0  0  0  0  0  0  0  0  0
  -22.9450   13.9690  -30.3330 C   0  0  0  0  0  0  0  0  0  0  0  0
  -22.3960   15.1480  -29.8290 C   0  0  0  0  0  0  0  0  0  0  0  0
  -21.7110   15.1530  -28.6030 C   0  0  0  0  0  0  0  0  0  0  0  0
  -21.5800   13.9440  -27.8790 C   0  0  0  0  0  0  0  0  0  0  0  0
  -20.8940   13.9490  -26.6530 C   0  0  0  0  0  0  0  0  0  0  0  0
  -20.3460   15.1290  -26.1490 C   0  0  0  0  0  0  0  0  0  0  0  0
  -20.4750   16.3180  -26.8610 C   0  0  0  0  0  0  0  0  0  0  0  0
  -22.1380   12.7670  -28.4010 C   0  0  0  0  0  0  0  0  0  0  0  0
  -21.1530   16.3310  -28.0810 C   0  0  0  0  0  0  0  0  0  0  0  0
  -22.8160   12.7800  -29.6210 C   0  0  0  0  0  0  0  0  0  0  0  0
  -20.1160   16.1690  -23.9320 N   0  0  0  0  0  0  0  0  0  0  0  0
  -19.4550   16.7780  -23.4920 H   0  0  0  0  0  0  0  0  0  0  0  0
  -21.4500   16.3370  -23.6700 C   0  0  0  0  0  0  0  0  0  0  0  0
  -22.3730   15.6720  -24.1330 O   0  0  0  0  0  0  0  0  0  0  0  0
  -21.6520   17.4780  -22.7060 C   0  0  0  0  0  0  0  0  0  0  0  0
  -20.8980   18.6530  -23.1670 N   0  0  0  0  0  0  0  0  0  0  0  0
  -20.8660   18.9130  -24.5180 N   0  0  0  0  0  0  0  0  0  0  0  0
  -21.3680   18.2750  -25.1280 H   0  0  0  0  0  0  0  0  0  0  0  0
  -20.1890   19.9870  -25.0360 C   0  0  0  0  0  0  0  0  0  0  0  0
  -20.1420   20.2480  -26.2370 O   0  0  0  0  0  0  0  0  0  0  0  0
  -19.4930   20.8510  -24.0660 C   0  0  0  0  0  0  0  0  0  0  0  0
  -19.5300   20.5870  -22.7600 C   0  0  0  0  0  0  0  0  0  0  0  0
  -20.2690   19.4220  -22.2300 C   0  0  0  0  0  0  0  0  0  0  0  0
  -20.2750   19.2220  -21.0150 O   0  0  0  0  0  0  0  0  0  0  0  0
  -19.6650   13.7560  -24.1090 C   0  0  0  0  0  0  0  0  0  0  0  0
  -20.6020   13.7740  -23.0160 N   0  0  0  0  0  0  0  0  0  0  0  0
  -21.5710   14.0040  -23.2230 H   0  0  0  0  0  0  0  0  0  0  0  0
  -20.2310   13.4540  -21.7170 C   0  0  0  0  0  0  0  0  0  0  0  0
  -19.1030   13.1280  -21.3630 O   0  0  0  0  0  0  0  0  0  0  0  0
  -21.3770   13.5430  -20.7710 C   0  0  0  0  0  0  0  0  0  0  0  0
  -22.5760   13.9520  -21.2070 C   0  0  0  0  0  0  0  0  0  0  0  0
  -23.7240   14.0620  -20.3500 C   0  0  0  0  0  0  0  0  0  0  0  0
  -24.5690   15.2840  -20.3980 C   0  0  0  0  0  0  0  0  0  0  0  0
  -24.3320   16.2250  -21.1500 O   0  0  0  0  0  0  0  0  0  0  0  0
  -25.6350   15.2500  -19.5190 N   0  0  0  0  0  0  0  0  0  0  0  0
  -26.2660   16.0460  -19.4860 H   0  0  0  0  0  0  0  0  0  0  0  0
  -25.8690   14.1760  -18.6910 C   0  0  0  0  0  0  0  0  0  0  0  0
  -25.1410   13.1090  -18.6400 N   0  0  0  0  0  0  0  0  0  0  0  0
  -24.0650   13.0870  -19.4940 C   0  0  0  0  0  0  0  0  0  0  0  0
  1 26  1  1  0  0  0
  1 12  1  0  0  0  0
  2  3  2  0  0  0  0
  2 11  1  0  0  0  0
  3  4  1  0  0  0  0
  4 10  2  0  0  0  0
  4  5  1  0  0  0  0
  5  6  2  0  0  0  0
  6  7  1  0  0  0  0
  7  1  1  0  0  0  0
  8  7  2  0  0  0  0
  9  5  1  0  0  0  0
 10  8  1  0  0  0  0
 11  9  2  0  0  0  0
 12 14  1  0  0  0  0
 12 13  1  0  0  0  0
 14 16  1  0  0  0  0
 15 14  2  0  0  0  0
 17 16  1  0  0  0  0
 17 24  1  0  0  0  0
 18 17  1  0  0  0  0
 19 18  1  0  0  0  0
 20 18  1  0  0  0  0
 20 22  1  0  0  0  0
 21 20  2  0  0  0  0
 22 23  2  0  0  0  0
 23 24  1  0  0  0  0
 24 25  2  0  0  0  0
 26 27  1  0  0  0  0
 27 29  1  0  0  0  0
 28 27  1  0  0  0  0
 29 30  2  0  0  0  0
 29 31  1  0  0  0  0
 32 31  2  0  0  0  0
 32 33  1  0  0  0  0
 33 40  2  0  0  0  0
 34 33  1  0  0  0  0
 34 36  1  0  0  0  0
 35 34  2  0  0  0  0
 36 37  1  0  0  0  0
 36 38  1  0  0  0  0
 38 39  2  0  0  0  0
 40 39  1  0  0  0  0
M  END
>  <ADSCOR>
   -7.55

$$$$
62
 OpenBabel08042116023D

 40 43  0  0  1  0  0  0  0  0999 V2000
  -21.5190   17.2890  -25.3670 C   0  0  1  0  0  0  0  0  0  0  0  0
  -23.1230   13.4990  -30.4200 C   0  0  0  0  0  0  0  0  0  0  0  0
  -23.0540   14.8880  -30.3080 C   0  0  0  0  0  0  0  0  0  0  0  0
  -22.6770   15.4920  -29.0970 C   0  0  0  0  0  0  0  0  0  0  0  0
  -22.3680   14.6740  -27.9840 C   0  0  0  0  0  0  0  0  0  0  0  0
  -21.9910   15.2760  -26.7730 C   0  0  0  0  0  0  0  0  0  0  0  0
  -21.9210   16.6650  -26.6590 C   0  0  0  0  0  0  0  0  0  0  0  0
  -22.2260   17.4690  -27.7540 C   0  0  0  0  0  0  0  0  0  0  0  0
  -22.4430   13.2780  -28.1150 C   0  0  0  0  0  0  0  0  0  0  0  0
  -22.6010   16.8880  -28.9650 C   0  0  0  0  0  0  0  0  0  0  0  0
  -22.8190   12.6950  -29.3260 C   0  0  0  0  0  0  0  0  0  0  0  0
  -21.5140   16.3060  -24.2620 N   0  0  0  0  0  0  0  0  0  0  0  0
  -20.8360   15.5690  -24.2680 H   0  0  0  0  0  0  0  0  0  0  0  0
  -22.4070   16.3790  -23.2360 C   0  0  0  0  0  0  0  0  0  0  0  0
  -23.2970   17.2060  -23.0700 O   0  0  0  0  0  0  0  0  0  0  0  0
  -22.2040   15.2890  -22.2640 C   0  0  0  0  0  0  0  0  0  0  0  0
  -22.9710   15.2760  -21.1310 N   0  0  0  0  0  0  0  0  0  0  0  0
  -23.6530   16.0180  -21.0020 H   0  0  0  0  0  0  0  0  0  0  0  0
  -22.8580   14.2970  -20.1530 C   0  0  0  0  0  0  0  0  0  0  0  0
  -23.5510   14.2870  -19.1340 O   0  0  0  0  0  0  0  0  0  0  0  0
  -21.8940   13.3230  -20.4220 N   0  0  0  0  0  0  0  0  0  0  0  0
  -21.7810   12.5860  -19.7310 H   0  0  0  0  0  0  0  0  0  0  0  0
  -21.0770   13.2640  -21.5420 C   0  0  0  0  0  0  0  0  0  0  0  0
  -20.2380   12.3900  -21.7430 O   0  0  0  0  0  0  0  0  0  0  0  0
  -21.2810   14.3590  -22.5230 C   0  0  0  0  0  0  0  0  0  0  0  0
  -20.1460   18.0020  -25.4070 C   0  0  0  0  0  0  0  0  0  0  0  0
  -19.8040   18.5720  -24.1310 N   0  0  0  0  0  0  0  0  0  0  0  0
  -19.1170   18.0890  -23.5550 H   0  0  0  0  0  0  0  0  0  0  0  0
  -20.3600   19.7490  -23.6420 C   0  0  0  0  0  0  0  0  0  0  0  0
  -21.1950   20.4310  -24.2310 O   0  0  0  0  0  0  0  0  0  0  0  0
  -19.8130   20.0980  -22.2820 C   0  0  0  0  0  0  0  0  0  0  0  0
  -20.6870   19.5400  -21.2400 N   0  0  0  0  0  0  0  0  0  0  0  0
  -21.4410   20.4130  -20.4900 N   0  0  0  0  0  0  0  0  0  0  0  0
  -21.3510   21.4030  -20.6960 H   0  0  0  0  0  0  0  0  0  0  0  0
  -22.2850   19.9810  -19.5000 C   0  0  0  0  0  0  0  0  0  0  0  0
  -22.9720   20.7340  -18.8130 O   0  0  0  0  0  0  0  0  0  0  0  0
  -22.3420   18.5240  -19.2790 C   0  0  0  0  0  0  0  0  0  0  0  0
  -21.6050   17.6890  -20.0130 C   0  0  0  0  0  0  0  0  0  0  0  0
  -20.7050   18.1840  -21.0750 C   0  0  0  0  0  0  0  0  0  0  0  0
  -20.0480   17.3730  -21.7240 O   0  0  0  0  0  0  0  0  0  0  0  0
  1 26  1  6  0  0  0
  1 12  1  0  0  0  0
  2  3  2  0  0  0  0
  2 11  1  0  0  0  0
  3  4  1  0  0  0  0
  4 10  2  0  0  0  0
  4  5  1  0  0  0  0
  5  6  2  0  0  0  0
  6  7  1  0  0  0  0
  7  1  1  0  0  0  0
  8  7  2  0  0  0  0
  9  5  1  0  0  0  0
 10  8  1  0  0  0  0
 11  9  2  0  0  0  0
 12 14  1  0  0  0  0
 13 12  1  0  0  0  0
 14 15  2  0  0  0  0
 14 16  1  0  0  0  0
 16 17  1  0  0  0  0
 17 18  1  0  0  0  0
 17 19  1  0  0  0  0
 19 20  2  0  0  0  0
 21 19  1  0  0  0  0
 21 22  1  0  0  0  0
 23 21  1  0  0  0  0
 24 23  2  0  0  0  0
 25 16  2  0  0  0  0
 25 23  1  0  0  0  0
 26 27  1  0  0  0  0
 27 29  1  0  0  0  0
 27 28  1  0  0  0  0
 29 31  1  0  0  0  0
 30 29  2  0  0  0  0
 31 32  1  0  0  0  0
 32 39  1  0  0  0  0
 32 33  1  0  0  0  0
 33 35  1  0  0  0  0
 34 33  1  0  0  0  0
 35 37  1  0  0  0  0
 35 36  2  0  0  0  0
 38 37  2  0  0  0  0
 39 38  1  0  0  0  0
 40 39  2  0  0  0  0
M  END
>  <ADSCOR>
   -7.58

$$$$
63
 OpenBabel08042116023D

 36 39  0  0  1  0  0  0  0  0999 V2000
  -24.2540   15.2130  -19.8000 C   0  0  0  0  0  0  0  0  0  0  0  0
  -23.4960   16.3790  -19.6790 C   0  0  0  0  0  0  0  0  0  0  0  0
  -22.2580   16.4260  -20.2980 C   0  0  0  0  0  0  0  0  0  0  0  0
  -21.2650   17.5460  -20.2670 C   0  0  0  0  0  0  0  0  0  0  0  0
  -20.3280   17.1690  -21.4320 C   0  0  1  0  0  0  0  0  0  0  0  0
  -20.3870   15.6220  -21.5450 C   0  0  1  0  0  0  0  0  0  0  0  0
  -21.7660   15.3330  -21.0230 C   0  0  0  0  0  0  0  0  0  0  0  0
  -22.5080   14.1660  -21.1320 C   0  0  0  0  0  0  0  0  0  0  0  0
  -23.7630   14.1140  -20.5210 C   0  0  0  0  0  0  0  0  0  0  0  0
  -20.7450   17.8350  -22.6500 N   0  0  0  0  0  0  0  0  0  0  0  0
  -20.1230   18.5310  -23.0570 H   0  0  0  0  0  0  0  0  0  0  0  0
  -21.9500   17.5700  -23.2910 C   0  0  0  0  0  0  0  0  0  0  0  0
  -22.7870   16.7550  -22.9050 O   0  0  0  0  0  0  0  0  0  0  0  0
  -22.1530   18.4000  -24.5440 C   0  0  0  0  0  0  0  0  0  0  0  0
  -21.4860   17.7240  -25.6900 C   0  0  0  0  0  0  0  0  0  0  0  0
  -20.0440   17.3600  -25.6810 C   0  0  0  0  0  0  0  0  0  0  0  0
  -19.7380   16.7730  -26.8860 O   0  0  0  0  0  0  0  0  0  0  0  0
  -20.9190   16.7500  -27.5900 N   0  0  0  0  0  0  0  0  0  0  0  0
  -20.9580   16.4760  -28.5610 H   0  0  0  0  0  0  0  0  0  0  0  0
  -19.2640   17.5540  -24.7640 O   0  0  0  0  0  0  0  0  0  0  0  0
  -21.9290   17.3240  -26.8870 C   0  0  0  0  0  0  0  0  0  0  0  0
  -23.2870   17.4470  -27.4740 C   0  0  0  0  0  0  0  0  0  0  0  0
  -20.1410   15.1290  -22.8720 N   0  0  0  0  0  0  0  0  0  0  0  0
  -19.9230   15.8070  -23.6000 H   0  0  0  0  0  0  0  0  0  0  0  0
  -20.1520   13.7740  -23.1730 C   0  0  0  0  0  0  0  0  0  0  0  0
  -20.3650   12.8720  -22.3700 O   0  0  0  0  0  0  0  0  0  0  0  0
  -19.8650   13.5190  -24.6110 C   0  0  0  0  0  0  0  0  0  0  0  0
  -20.7170   13.9460  -25.5520 C   0  0  0  0  0  0  0  0  0  0  0  0
  -20.5020   13.7340  -26.9560 C   0  0  0  0  0  0  0  0  0  0  0  0
  -21.6620   13.5110  -27.8580 C   0  0  0  0  0  0  0  0  0  0  0  0
  -22.8220   13.5000  -27.4550 O   0  0  0  0  0  0  0  0  0  0  0  0
  -21.3040   13.3200  -29.1790 N   0  0  0  0  0  0  0  0  0  0  0  0
  -22.0370   13.1620  -29.8650 H   0  0  0  0  0  0  0  0  0  0  0  0
  -19.9920   13.3390  -29.5930 C   0  0  0  0  0  0  0  0  0  0  0  0
  -18.9750   13.5310  -28.8180 N   0  0  0  0  0  0  0  0  0  0  0  0
  -19.2720   13.7270  -27.4910 C   0  0  0  0  0  0  0  0  0  0  0  0
  1  2  1  0  0  0  0
  3  4  1  0  0  0  0
  3  2  2  0  0  0  0
  5 10  1  6  0  0  0
  5  4  1  0  0  0  0
  6 23  1  6  0  0  0
  6  5  1  0  0  0  0
  6  7  1  0  0  0  0
  7  3  1  0  0  0  0
  8  7  2  0  0  0  0
  8  9  1  0  0  0  0
  9  1  2  0  0  0  0
 11 10  1  0  0  0  0
 12 13  2  0  0  0  0
 12 10  1  0  0  0  0
 14 12  1  0  0  0  0
 15 16  1  0  0  0  0
 15 14  1  0  0  0  0
 16 20  2  0  0  0  0
 17 16  1  0  0  0  0
 18 21  1  0  0  0  0
 18 17  1  0  0  0  0
 19 18  1  0  0  0  0
 21 15  2  0  0  0  0
 22 21  1  0  0  0  0
 24 23  1  0  0  0  0
 25 23  1  0  0  0  0
 25 26  2  0  0  0  0
 27 25  1  0  0  0  0
 28 27  2  0  0  0  0
 29 28  1  0  0  0  0
 30 31  2  0  0  0  0
 30 29  1  0  0  0  0
 32 30  1  0  0  0  0
 33 32  1  0  0  0  0
 34 32  1  0  0  0  0
 34 35  2  0  0  0  0
 35 36  1  0  0  0  0
 36 29  2  0  0  0  0
M  END
>  <ADSCOR>
   -7.22

$$$$
64
 OpenBabel08042116023D

 38 41  0  0  1  0  0  0  0  0999 V2000
  -22.0460   12.6410  -29.6720 C   0  0  0  0  0  0  0  0  0  0  0  0
  -22.0750   13.5990  -30.6870 C   0  0  0  0  0  0  0  0  0  0  0  0
  -22.4300   14.8950  -30.3570 C   0  0  0  0  0  0  0  0  0  0  0  0
  -22.4960   16.0890  -31.2600 C   0  0  0  0  0  0  0  0  0  0  0  0
  -23.3410   17.0540  -30.4060 C   0  0  1  0  0  0  0  0  0  0  0  0
  -23.0480   16.7110  -28.9250 C   0  0  1  0  0  0  0  0  0  0  0  0
  -22.7360   15.2470  -29.0350 C   0  0  0  0  0  0  0  0  0  0  0  0
  -22.7020   14.3040  -28.0220 C   0  0  0  0  0  0  0  0  0  0  0  0
  -22.3570   12.9910  -28.3480 C   0  0  0  0  0  0  0  0  0  0  0  0
  -23.1210   18.4300  -30.7550 N   0  0  0  0  0  0  0  0  0  0  0  0
  -22.1700   18.7260  -30.9740 H   0  0  0  0  0  0  0  0  0  0  0  0
  -24.1350   19.3810  -30.8100 C   0  0  0  0  0  0  0  0  0  0  0  0
  -25.3190   19.1620  -30.5710 O   0  0  0  0  0  0  0  0  0  0  0  0
  -23.6050   20.7380  -31.2000 C   0  0  0  0  0  0  0  0  0  0  0  0
  -22.1910   20.6230  -31.5880 N   0  0  0  0  0  0  0  0  0  0  0  0
  -21.8740   19.7930  -32.6380 N   0  0  0  0  0  0  0  0  0  0  0  0
  -22.6380   19.3000  -33.0900 H   0  0  0  0  0  0  0  0  0  0  0  0
  -20.5830   19.6260  -33.0700 C   0  0  0  0  0  0  0  0  0  0  0  0
  -20.2650   18.8940  -34.0050 O   0  0  0  0  0  0  0  0  0  0  0  0
  -19.5480   20.3880  -32.3450 C   0  0  0  0  0  0  0  0  0  0  0  0
  -19.8700   21.1870  -31.3290 C   0  0  0  0  0  0  0  0  0  0  0  0
  -21.2710   21.3470  -30.8860 C   0  0  0  0  0  0  0  0  0  0  0  0
  -21.5160   22.0990  -29.9430 O   0  0  0  0  0  0  0  0  0  0  0  0
  -21.9400   17.4420  -28.3680 N   0  0  0  0  0  0  0  0  0  0  0  0
  -22.0040   17.7340  -27.3950 H   0  0  0  0  0  0  0  0  0  0  0  0
  -20.7920   17.7170  -29.0970 C   0  0  0  0  0  0  0  0  0  0  0  0
  -20.5930   17.3820  -30.2600 O   0  0  0  0  0  0  0  0  0  0  0  0
  -19.7930   18.4800  -28.2980 C   0  0  0  0  0  0  0  0  0  0  0  0
  -19.4270   19.7100  -28.6800 C   0  0  0  0  0  0  0  0  0  0  0  0
  -18.4690   20.5010  -27.9580 C   0  0  0  0  0  0  0  0  0  0  0  0
  -18.3970   21.9670  -28.1840 C   0  0  0  0  0  0  0  0  0  0  0  0
  -19.1310   22.5510  -28.9730 O   0  0  0  0  0  0  0  0  0  0  0  0
  -17.4300   22.5960  -27.4220 N   0  0  0  0  0  0  0  0  0  0  0  0
  -17.3240   23.6010  -27.5250 H   0  0  0  0  0  0  0  0  0  0  0  0
  -16.6170   21.9110  -26.5420 C   0  0  0  0  0  0  0  0  0  0  0  0
  -16.6770   20.6310  -26.3430 N   0  0  0  0  0  0  0  0  0  0  0  0
  -15.6190   22.7470  -25.7940 C   0  0  0  0  0  0  0  0  0  0  0  0
  -17.6220   19.9540  -27.0750 C   0  0  0  0  0  0  0  0  0  0  0  0
  1  9  2  0  0  0  0
  2  3  2  0  0  0  0
  2  1  1  0  0  0  0
  3  7  1  0  0  0  0
  4  5  1  0  0  0  0
  4  3  1  0  0  0  0
  5 10  1  1  0  0  0
  5  6  1  0  0  0  0
  6 24  1  6  0  0  0
  7  6  1  0  0  0  0
  7  8  2  0  0  0  0
  9  8  1  0  0  0  0
 11 10  1  0  0  0  0
 12 10  1  0  0  0  0
 12 13  2  0  0  0  0
 14 12  1  0  0  0  0
 15 14  1  0  0  0  0
 15 22  1  0  0  0  0
 16 15  1  0  0  0  0
 17 16  1  0  0  0  0
 18 16  1  0  0  0  0
 18 20  1  0  0  0  0
 19 18  2  0  0  0  0
 20 21  2  0  0  0  0
 21 22  1  0  0  0  0
 22 23  2  0  0  0  0
 24 25  1  0  0  0  0
 26 24  1  0  0  0  0
 26 28  1  0  0  0  0
 27 26  2  0  0  0  0
 29 28  2  0  0  0  0
 29 30  1  0  0  0  0
 30 38  2  0  0  0  0
 31 30  1  0  0  0  0
 31 33  1  0  0  0  0
 32 31  2  0  0  0  0
 33 35  1  0  0  0  0
 34 33  1  0  0  0  0
 35 36  2  0  0  0  0
 35 37  1  0  0  0  0
 38 36  1  0  0  0  0
M  END
>  <ADSCOR>
   -8.28

$$$$
65
 OpenBabel08042116023D

 34 36  0  0  1  0  0  0  0  0999 V2000
  -22.5400   14.7560  -26.8060 C   0  0  1  0  0  0  0  0  0  0  0  0
  -21.4630   12.4020  -30.2500 C   0  0  0  0  0  0  0  0  0  0  0  0
  -20.4710   13.0300  -29.4950 C   0  0  0  0  0  0  0  0  0  0  0  0
  -20.8210   13.7920  -28.3810 C   0  0  0  0  0  0  0  0  0  0  0  0
  -22.1610   13.9270  -28.0200 C   0  0  0  0  0  0  0  0  0  0  0  0
  -23.1530   13.2980  -28.7730 C   0  0  0  0  0  0  0  0  0  0  0  0
  -22.8030   12.5360  -29.8890 C   0  0  0  0  0  0  0  0  0  0  0  0
  -21.6680   14.4440  -25.6680 N   0  0  0  0  0  0  0  0  0  0  0  0
  -21.0240   13.6750  -25.7440 H   0  0  0  0  0  0  0  0  0  0  0  0
  -21.7040   15.1670  -24.5070 C   0  0  0  0  0  0  0  0  0  0  0  0
  -22.4210   16.1260  -24.2460 O   0  0  0  0  0  0  0  0  0  0  0  0
  -20.7380   14.6600  -23.5140 C   0  0  0  0  0  0  0  0  0  0  0  0
  -19.4410   14.9380  -23.7080 C   0  0  0  0  0  0  0  0  0  0  0  0
  -18.4340   14.4400  -22.7220 C   0  0  0  0  0  0  0  0  0  0  0  0
  -17.2400   14.6810  -22.8800 O   0  0  0  0  0  0  0  0  0  0  0  0
  -18.9450   13.7100  -21.6590 N   0  0  0  0  0  0  0  0  0  0  0  0
  -18.3040   13.3480  -20.9590 H   0  0  0  0  0  0  0  0  0  0  0  0
  -20.2820   13.4460  -21.4950 C   0  0  0  0  0  0  0  0  0  0  0  0
  -21.1830   13.8920  -22.3770 C   0  0  0  0  0  0  0  0  0  0  0  0
  -22.5250   16.2690  -27.0780 C   0  0  0  0  0  0  0  0  0  0  0  0
  -21.2580   16.8710  -26.7330 N   0  0  0  0  0  0  0  0  0  0  0  0
  -20.9930   16.9100  -25.7530 H   0  0  0  0  0  0  0  0  0  0  0  0
  -20.3850   17.3990  -27.6730 C   0  0  0  0  0  0  0  0  0  0  0  0
  -20.5780   17.4190  -28.8860 O   0  0  0  0  0  0  0  0  0  0  0  0
  -19.1480   17.9600  -27.0210 C   0  0  0  0  0  0  0  0  0  0  0  0
  -19.1310   19.4030  -27.1680 N   0  0  0  0  0  0  0  0  0  0  0  0
  -19.3280   19.9470  -28.4250 N   0  0  0  0  0  0  0  0  0  0  0  0
  -19.4740   19.2910  -29.1860 H   0  0  0  0  0  0  0  0  0  0  0  0
  -19.3300   21.2990  -28.6580 C   0  0  0  0  0  0  0  0  0  0  0  0
  -19.5040   21.8000  -29.7660 O   0  0  0  0  0  0  0  0  0  0  0  0
  -19.1070   22.1640  -27.4840 C   0  0  0  0  0  0  0  0  0  0  0  0
  -18.9160   21.6430  -26.2730 C   0  0  0  0  0  0  0  0  0  0  0  0
  -18.9190   20.1800  -26.0520 C   0  0  0  0  0  0  0  0  0  0  0  0
  -18.7390   19.7500  -24.9130 O   0  0  0  0  0  0  0  0  0  0  0  0
  1 20  1  6  0  0  0
  1  8  1  0  0  0  0
  2  7  2  0  0  0  0
  2  3  1  0  0  0  0
  3  4  2  0  0  0  0
  4  5  1  0  0  0  0
  5  1  1  0  0  0  0
  6  5  2  0  0  0  0
  7  6  1  0  0  0  0
  8 10  1  0  0  0  0
  9  8  1  0  0  0  0
 10 11  2  0  0  0  0
 10 12  1  0  0  0  0
 12 19  1  0  0  0  0
 13 12  2  0  0  0  0
 13 14  1  0  0  0  0
 14 16  1  0  0  0  0
 15 14  2  0  0  0  0
 16 18  1  0  0  0  0
 16 17  1  0  0  0  0
 19 18  2  0  0  0  0
 20 21  1  0  0  0  0
 21 22  1  0  0  0  0
 23 25  1  0  0  0  0
 23 21  1  0  0  0  0
 24 23  2  0  0  0  0
 26 25  1  0  0  0  0
 26 33  1  0  0  0  0
 27 26  1  0  0  0  0
 28 27  1  0  0  0  0
 29 27  1  0  0  0  0
 29 31  1  0  0  0  0
 30 29  2  0  0  0  0
 31 32  2  0  0  0  0
 32 33  1  0  0  0  0
 33 34  2  0  0  0  0
M  END
>  <ADSCOR>
   -7.78

$$$$
66
 OpenBabel08042116023D

 39 42  0  0  1  0  0  0  0  0999 V2000
  -22.6100   13.1330  -30.4230 C   0  0  0  0  0  0  0  0  0  0  0  0
  -21.8030   14.2710  -30.4440 C   0  0  0  0  0  0  0  0  0  0  0  0
  -21.3910   14.8080  -29.2360 C   0  0  0  0  0  0  0  0  0  0  0  0
  -20.5590   16.0330  -29.0170 C   0  0  0  0  0  0  0  0  0  0  0  0
  -20.1000   15.8140  -27.5650 C   0  0  2  0  0  0  0  0  0  0  0  0
  -21.2400   15.0390  -26.8610 C   0  0  1  0  0  0  0  0  0  0  0  0
  -21.7780   14.2360  -28.0160 C   0  0  0  0  0  0  0  0  0  0  0  0
  -22.5900   13.1120  -27.9890 C   0  0  0  0  0  0  0  0  0  0  0  0
  -23.0000   12.5570  -29.2040 C   0  0  0  0  0  0  0  0  0  0  0  0
  -19.7690   17.0430  -26.8990 N   0  0  0  0  0  0  0  0  0  0  0  0
  -19.9990   17.1280  -25.9100 H   0  0  0  0  0  0  0  0  0  0  0  0
  -19.1200   18.0870  -27.5440 C   0  0  0  0  0  0  0  0  0  0  0  0
  -18.7650   18.0810  -28.7190 O   0  0  0  0  0  0  0  0  0  0  0  0
  -18.8860   19.2470  -26.6400 C   0  0  0  0  0  0  0  0  0  0  0  0
  -18.7130   20.4730  -27.1510 C   0  0  0  0  0  0  0  0  0  0  0  0
  -18.4830   21.6340  -26.3390 C   0  0  0  0  0  0  0  0  0  0  0  0
  -17.1220   22.2220  -26.2540 C   0  0  0  0  0  0  0  0  0  0  0  0
  -16.1610   21.7550  -26.8560 O   0  0  0  0  0  0  0  0  0  0  0  0
  -17.0510   23.3350  -25.4360 N   0  0  0  0  0  0  0  0  0  0  0  0
  -16.1480   23.7900  -25.3310 H   0  0  0  0  0  0  0  0  0  0  0  0
  -18.1510   23.8370  -24.7710 C   0  0  0  0  0  0  0  0  0  0  0  0
  -19.3400   23.3260  -24.8420 N   0  0  0  0  0  0  0  0  0  0  0  0
  -17.8980   25.0510  -23.9240 C   0  0  0  0  0  0  0  0  0  0  0  0
  -19.4690   22.2160  -25.6420 C   0  0  0  0  0  0  0  0  0  0  0  0
  -20.7440   14.2140  -25.6810 C   0  0  0  0  0  0  0  0  0  0  0  0
  -20.6770   15.0280  -24.5130 N   0  0  0  0  0  0  0  0  0  0  0  0
  -20.9590   16.0100  -24.5920 H   0  0  0  0  0  0  0  0  0  0  0  0
  -20.2490   14.5660  -23.2640 C   0  0  0  0  0  0  0  0  0  0  0  0
  -19.8860   13.4150  -23.0340 O   0  0  0  0  0  0  0  0  0  0  0  0
  -20.2800   15.6500  -22.2170 C   0  0  0  0  0  0  0  0  0  0  0  0
  -21.0100   16.8160  -22.7370 N   0  0  0  0  0  0  0  0  0  0  0  0
  -20.2780   17.8560  -23.2620 N   0  0  0  0  0  0  0  0  0  0  0  0
  -19.2670   17.7610  -23.2620 H   0  0  0  0  0  0  0  0  0  0  0  0
  -20.8740   18.9800  -23.7730 C   0  0  0  0  0  0  0  0  0  0  0  0
  -20.2500   19.9260  -24.2490 O   0  0  0  0  0  0  0  0  0  0  0  0
  -22.3470   19.0180  -23.7260 C   0  0  0  0  0  0  0  0  0  0  0  0
  -23.0440   18.0050  -23.2130 C   0  0  0  0  0  0  0  0  0  0  0  0
  -22.3730   16.8030  -22.6710 C   0  0  0  0  0  0  0  0  0  0  0  0
  -23.0630   15.8940  -22.2090 O   0  0  0  0  0  0  0  0  0  0  0  0
  1  9  1  0  0  0  0
  2  1  2  0  0  0  0
  2  3  1  0  0  0  0
  3  4  1  0  0  0  0
  3  7  2  0  0  0  0
  4  5  1  0  0  0  0
  5 10  1  1  0  0  0
  5  6  1  0  0  0  0
  6 25  1  1  0  0  0
  7  8  1  0  0  0  0
  7  6  1  0  0  0  0
  9  8  2  0  0  0  0
 10 11  1  0  0  0  0
 12 10  1  0  0  0  0
 12 14  1  0  0  0  0
 13 12  2  0  0  0  0
 15 14  2  0  0  0  0
 15 16  1  0  0  0  0
 16 17  1  0  0  0  0
 16 24  2  0  0  0  0
 17 19  1  0  0  0  0
 18 17  2  0  0  0  0
 19 20  1  0  0  0  0
 19 21  1  0  0  0  0
 21 23  1  0  0  0  0
 22 21  2  0  0  0  0
 24 22  1  0  0  0  0
 25 26  1  0  0  0  0
 26 28  1  0  0  0  0
 27 26  1  0  0  0  0
 28 29  2  0  0  0  0
 28 30  1  0  0  0  0
 31 38  1  0  0  0  0
 31 30  1  0  0  0  0
 32 33  1  0  0  0  0
 32 31  1  0  0  0  0
 34 36  1  0  0  0  0
 34 32  1  0  0  0  0
 35 34  2  0  0  0  0
 36 37  2  0  0  0  0
 37 38  1  0  0  0  0
 38 39  2  0  0  0  0
M  END
>  <ADSCOR>
   -9.58

$$$$
67
 OpenBabel08042116023D

 38 41  0  0  1  0  0  0  0  0999 V2000
  -20.6810   14.3100  -21.0200 C   0  0  0  0  0  0  0  0  0  0  0  0
  -20.7750   15.5910  -21.5640 C   0  0  0  0  0  0  0  0  0  0  0  0
  -20.5620   15.7450  -22.9240 C   0  0  0  0  0  0  0  0  0  0  0  0
  -20.6440   17.0040  -23.7310 C   0  0  0  0  0  0  0  0  0  0  0  0
  -19.8970   16.5800  -25.0100 C   0  0  1  0  0  0  0  0  0  0  0  0
  -20.1260   15.0570  -25.1740 C   0  0  1  0  0  0  0  0  0  0  0  0
  -20.2750   14.6420  -23.7400 C   0  0  0  0  0  0  0  0  0  0  0  0
  -20.1870   13.3670  -23.2070 C   0  0  0  0  0  0  0  0  0  0  0  0
  -20.3890   13.2050  -21.8350 C   0  0  0  0  0  0  0  0  0  0  0  0
  -20.2750   17.3660  -26.1520 N   0  0  0  0  0  0  0  0  0  0  0  0
  -21.1210   17.1030  -26.6550 H   0  0  0  0  0  0  0  0  0  0  0  0
  -19.5540   18.4810  -26.5580 C   0  0  0  0  0  0  0  0  0  0  0  0
  -18.5460   18.9100  -26.0080 O   0  0  0  0  0  0  0  0  0  0  0  0
  -20.1490   19.1250  -27.7610 C   0  0  0  0  0  0  0  0  0  0  0  0
  -19.4910   19.1040  -28.9270 C   0  0  0  0  0  0  0  0  0  0  0  0
  -20.0050   19.7060  -30.1260 C   0  0  0  0  0  0  0  0  0  0  0  0
  -19.7840   21.1520  -30.3850 C   0  0  0  0  0  0  0  0  0  0  0  0
  -19.1690   21.8760  -29.6090 O   0  0  0  0  0  0  0  0  0  0  0  0
  -20.3350   21.5900  -31.5750 N   0  0  0  0  0  0  0  0  0  0  0  0
  -20.2220   22.5710  -31.8170 H   0  0  0  0  0  0  0  0  0  0  0  0
  -21.0210   20.7520  -32.4290 C   0  0  0  0  0  0  0  0  0  0  0  0
  -21.2170   19.4890  -32.2050 N   0  0  0  0  0  0  0  0  0  0  0  0
  -21.5550   21.3910  -33.6770 C   0  0  0  0  0  0  0  0  0  0  0  0
  -20.6900   18.9980  -31.0360 C   0  0  0  0  0  0  0  0  0  0  0  0
  -21.2990   14.7250  -25.9400 N   0  0  0  0  0  0  0  0  0  0  0  0
  -21.2000   14.0700  -26.7130 H   0  0  0  0  0  0  0  0  0  0  0  0
  -22.5600   15.2510  -25.6790 C   0  0  0  0  0  0  0  0  0  0  0  0
  -22.8190   16.0480  -24.7800 O   0  0  0  0  0  0  0  0  0  0  0  0
  -23.5900   14.7250  -26.6450 C   0  0  0  0  0  0  0  0  0  0  0  0
  -22.9480   14.4200  -27.9330 N   0  0  0  0  0  0  0  0  0  0  0  0
  -23.0490   13.1370  -28.4180 N   0  0  0  0  0  0  0  0  0  0  0  0
  -23.5620   12.4640  -27.8570 H   0  0  0  0  0  0  0  0  0  0  0  0
  -22.4840   12.7630  -29.6110 C   0  0  0  0  0  0  0  0  0  0  0  0
  -22.5550   11.6270  -30.0740 O   0  0  0  0  0  0  0  0  0  0  0  0
  -21.7590   13.8150  -30.3480 C   0  0  0  0  0  0  0  0  0  0  0  0
  -21.6680   15.0540  -29.8650 C   0  0  0  0  0  0  0  0  0  0  0  0
  -22.2900   15.4280  -28.5760 C   0  0  0  0  0  0  0  0  0  0  0  0
  -22.1780   16.5850  -28.1740 O   0  0  0  0  0  0  0  0  0  0  0  0
  2  1  1  0  0  0  0
  3  2  2  0  0  0  0
  4  3  1  0  0  0  0
  5 10  1  6  0  0  0
  5  4  1  0  0  0  0
  6 25  1  6  0  0  0
  6  5  1  0  0  0  0
  6  7  1  0  0  0  0
  7  8  2  0  0  0  0
  7  3  1  0  0  0  0
  8  9  1  0  0  0  0
  9  1  2  0  0  0  0
 11 10  1  0  0  0  0
 12 10  1  0  0  0  0
 12 13  2  0  0  0  0
 14 12  1  0  0  0  0
 15 14  2  0  0  0  0
 16 15  1  0  0  0  0
 17 16  1  0  0  0  0
 17 18  2  0  0  0  0
 19 17  1  0  0  0  0
 20 19  1  0  0  0  0
 21 22  2  0  0  0  0
 21 19  1  0  0  0  0
 22 24  1  0  0  0  0
 23 21  1  0  0  0  0
 24 16  2  0  0  0  0
 25 27  1  0  0  0  0
 26 25  1  0  0  0  0
 27 28  2  0  0  0  0
 29 27  1  0  0  0  0
 30 29  1  0  0  0  0
 31 30  1  0  0  0  0
 31 32  1  0  0  0  0
 33 31  1  0  0  0  0
 34 33  2  0  0  0  0
 35 36  2  0  0  0  0
 35 33  1  0  0  0  0
 36 37  1  0  0  0  0
 37 38  2  0  0  0  0
 37 30  1  0  0  0  0
M  END
>  <ADSCOR>
   -9.07

$$$$
68
 OpenBabel08042116023D

 38 41  0  0  1  0  0  0  0  0999 V2000
  -21.4480   13.3890  -30.2290 C   0  0  0  0  0  0  0  0  0  0  0  0
  -20.5710   13.1700  -29.1640 C   0  0  0  0  0  0  0  0  0  0  0  0
  -20.6140   14.0410  -28.0880 C   0  0  0  0  0  0  0  0  0  0  0  0
  -19.7570   14.0260  -26.8610 C   0  0  0  0  0  0  0  0  0  0  0  0
  -20.5330   14.9700  -25.9120 C   0  0  1  0  0  0  0  0  0  0  0  0
  -21.3340   15.9380  -26.8220 C   0  0  2  0  0  0  0  0  0  0  0  0
  -21.4990   15.1250  -28.0710 C   0  0  0  0  0  0  0  0  0  0  0  0
  -22.3670   15.3530  -29.1270 C   0  0  0  0  0  0  0  0  0  0  0  0
  -22.3390   14.4730  -30.2110 C   0  0  0  0  0  0  0  0  0  0  0  0
  -20.6090   17.1550  -27.0820 N   0  0  0  0  0  0  0  0  0  0  0  0
  -20.8260   17.9700  -26.5120 H   0  0  0  0  0  0  0  0  0  0  0  0
  -19.6110   17.2310  -28.0430 C   0  0  0  0  0  0  0  0  0  0  0  0
  -19.2440   16.3050  -28.7590 O   0  0  0  0  0  0  0  0  0  0  0  0
  -19.0100   18.5920  -28.1180 C   0  0  0  0  0  0  0  0  0  0  0  0
  -18.4420   19.1340  -27.0340 C   0  0  0  0  0  0  0  0  0  0  0  0
  -17.8450   20.4400  -27.0340 C   0  0  0  0  0  0  0  0  0  0  0  0
  -18.4230   21.5200  -27.8760 C   0  0  0  0  0  0  0  0  0  0  0  0
  -19.4100   21.3490  -28.5860 O   0  0  0  0  0  0  0  0  0  0  0  0
  -17.7450   22.7200  -27.7760 N   0  0  0  0  0  0  0  0  0  0  0  0
  -18.0750   23.5140  -28.3180 H   0  0  0  0  0  0  0  0  0  0  0  0
  -16.6410   22.8730  -26.9670 C   0  0  0  0  0  0  0  0  0  0  0  0
  -16.1290   21.9420  -26.2310 N   0  0  0  0  0  0  0  0  0  0  0  0
  -16.7640   20.7250  -26.2910 C   0  0  0  0  0  0  0  0  0  0  0  0
  -21.4700   14.1770  -24.9920 C   0  0  0  0  0  0  0  0  0  0  0  0
  -21.5380   14.8120  -23.7230 N   0  0  0  0  0  0  0  0  0  0  0  0
  -22.1570   15.6250  -23.6230 H   0  0  0  0  0  0  0  0  0  0  0  0
  -20.8120   14.3970  -22.5980 C   0  0  0  0  0  0  0  0  0  0  0  0
  -20.0400   13.4420  -22.5840 O   0  0  0  0  0  0  0  0  0  0  0  0
  -21.0830   15.2620  -21.3940 C   0  0  0  0  0  0  0  0  0  0  0  0
  -21.3140   16.6480  -21.8230 N   0  0  0  0  0  0  0  0  0  0  0  0
  -20.2340   17.4990  -21.8710 N   0  0  0  0  0  0  0  0  0  0  0  0
  -19.3310   17.1220  -21.6060 H   0  0  0  0  0  0  0  0  0  0  0  0
  -20.3560   18.8080  -22.2620 C   0  0  0  0  0  0  0  0  0  0  0  0
  -19.4130   19.5950  -22.3170 O   0  0  0  0  0  0  0  0  0  0  0  0
  -21.7130   19.2580  -22.6260 C   0  0  0  0  0  0  0  0  0  0  0  0
  -22.7500   18.4240  -22.5730 C   0  0  0  0  0  0  0  0  0  0  0  0
  -22.5880   17.0160  -22.1490 C   0  0  0  0  0  0  0  0  0  0  0  0
  -23.5780   16.2860  -22.1190 O   0  0  0  0  0  0  0  0  0  0  0  0
  1  9  2  0  0  0  0
  1  2  1  0  0  0  0
  2  3  2  0  0  0  0
  3  7  1  0  0  0  0
  3  4  1  0  0  0  0
  4  5  1  0  0  0  0
  5 24  1  1  0  0  0
  6 10  1  6  0  0  0
  6  5  1  0  0  0  0
  7  6  1  0  0  0  0
  8  7  2  0  0  0  0
  9  8  1  0  0  0  0
 10 11  1  0  0  0  0
 12 10  1  0  0  0  0
 13 12  2  0  0  0  0
 14 12  1  0  0  0  0
 14 15  2  0  0  0  0
 15 16  1  0  0  0  0
 16 23  2  0  0  0  0
 17 19  1  0  0  0  0
 17 16  1  0  0  0  0
 18 17  2  0  0  0  0
 19 21  1  0  0  0  0
 20 19  1  0  0  0  0
 21 22  2  0  0  0  0
 23 22  1  0  0  0  0
 24 25  1  0  0  0  0
 25 26  1  0  0  0  0
 25 27  1  0  0  0  0
 27 28  2  0  0  0  0
 27 29  1  0  0  0  0
 30 29  1  0  0  0  0
 31 30  1  0  0  0  0
 31 32  1  0  0  0  0
 33 31  1  0  0  0  0
 34 33  2  0  0  0  0
 35 36  2  0  0  0  0
 35 33  1  0  0  0  0
 36 37  1  0  0  0  0
 37 38  2  0  0  0  0
 37 30  1  0  0  0  0
M  END
>  <ADSCOR>
   -8.83

$$$$
69
 OpenBabel08042116023D

 38 41  0  0  1  0  0  0  0  0999 V2000
  -22.6750   13.1260  -30.1870 C   0  0  0  0  0  0  0  0  0  0  0  0
  -21.7790   14.1820  -30.3540 C   0  0  0  0  0  0  0  0  0  0  0  0
  -21.1960   14.7340  -29.2240 C   0  0  0  0  0  0  0  0  0  0  0  0
  -20.2420   15.8850  -29.1590 C   0  0  0  0  0  0  0  0  0  0  0  0
  -19.6540   15.6920  -27.7500 C   0  0  2  0  0  0  0  0  0  0  0  0
  -20.7780   15.0610  -26.8930 C   0  0  1  0  0  0  0  0  0  0  0  0
  -21.5020   14.2580  -27.9410 C   0  0  0  0  0  0  0  0  0  0  0  0
  -22.4030   13.2170  -27.7710 C   0  0  0  0  0  0  0  0  0  0  0  0
  -22.9850   12.6460  -28.9050 C   0  0  0  0  0  0  0  0  0  0  0  0
  -19.1490   16.9160  -27.1900 N   0  0  0  0  0  0  0  0  0  0  0  0
  -18.2710   17.2810  -27.5540 H   0  0  0  0  0  0  0  0  0  0  0  0
  -19.8340   17.6230  -26.2110 C   0  0  0  0  0  0  0  0  0  0  0  0
  -20.9130   17.2980  -25.7270 O   0  0  0  0  0  0  0  0  0  0  0  0
  -19.1080   18.8560  -25.8000 C   0  0  0  0  0  0  0  0  0  0  0  0
  -18.7060   19.7400  -26.7240 C   0  0  0  0  0  0  0  0  0  0  0  0
  -18.0020   20.9480  -26.3970 C   0  0  0  0  0  0  0  0  0  0  0  0
  -18.5600   21.8800  -25.3820 C   0  0  0  0  0  0  0  0  0  0  0  0
  -19.6160   21.6640  -24.7960 O   0  0  0  0  0  0  0  0  0  0  0  0
  -17.7760   22.9990  -25.1730 N   0  0  0  0  0  0  0  0  0  0  0  0
  -18.0830   23.6890  -24.4940 H   0  0  0  0  0  0  0  0  0  0  0  0
  -16.5970   23.2050  -25.8520 C   0  0  0  0  0  0  0  0  0  0  0  0
  -16.1030   22.4020  -26.7360 N   0  0  0  0  0  0  0  0  0  0  0  0
  -16.8400   21.2710  -26.9850 C   0  0  0  0  0  0  0  0  0  0  0  0
  -20.2360   14.2500  -25.7250 C   0  0  0  0  0  0  0  0  0  0  0  0
  -20.6910   14.8050  -24.4930 N   0  0  0  0  0  0  0  0  0  0  0  0
  -21.3890   15.5550  -24.5310 H   0  0  0  0  0  0  0  0  0  0  0  0
  -20.2440   14.3880  -23.2360 C   0  0  0  0  0  0  0  0  0  0  0  0
  -19.4130   13.5020  -23.0510 O   0  0  0  0  0  0  0  0  0  0  0  0
  -20.8980   15.1570  -22.1170 C   0  0  0  0  0  0  0  0  0  0  0  0
  -21.1980   16.5240  -22.5680 N   0  0  0  0  0  0  0  0  0  0  0  0
  -20.2710   17.5080  -22.3140 N   0  0  0  0  0  0  0  0  0  0  0  0
  -19.4240   17.2350  -21.8240 H   0  0  0  0  0  0  0  0  0  0  0  0
  -20.4650   18.8090  -22.7020 C   0  0  0  0  0  0  0  0  0  0  0  0
  -19.6570   19.7110  -22.4910 O   0  0  0  0  0  0  0  0  0  0  0  0
  -21.7270   19.0990  -23.4060 C   0  0  0  0  0  0  0  0  0  0  0  0
  -22.6180   18.1370  -23.6440 C   0  0  0  0  0  0  0  0  0  0  0  0
  -22.3800   16.7420  -23.2160 C   0  0  0  0  0  0  0  0  0  0  0  0
  -23.2340   15.8900  -23.4610 O   0  0  0  0  0  0  0  0  0  0  0  0
  1  9  1  0  0  0  0
  2  1  2  0  0  0  0
  2  3  1  0  0  0  0
  3  4  1  0  0  0  0
  3  7  2  0  0  0  0
  4  5  1  0  0  0  0
  5 10  1  1  0  0  0
  5  6  1  0  0  0  0
  6 24  1  1  0  0  0
  7  8  1  0  0  0  0
  7  6  1  0  0  0  0
  9  8  2  0  0  0  0
 10 12  1  0  0  0  0
 11 10  1  0  0  0  0
 12 14  1  0  0  0  0
 12 13  2  0  0  0  0
 15 16  1  0  0  0  0
 15 14  2  0  0  0  0
 16 17  1  0  0  0  0
 17 19  1  0  0  0  0
 17 18  2  0  0  0  0
 19 20  1  0  0  0  0
 21 19  1  0  0  0  0
 22 21  2  0  0  0  0
 23 22  1  0  0  0  0
 23 16  2  0  0  0  0
 24 25  1  0  0  0  0
 25 27  1  0  0  0  0
 26 25  1  0  0  0  0
 27 28  2  0  0  0  0
 27 29  1  0  0  0  0
 30 31  1  0  0  0  0
 30 29  1  0  0  0  0
 31 32  1  0  0  0  0
 33 34  2  0  0  0  0
 33 31  1  0  0  0  0
 35 33  1  0  0  0  0
 36 35  2  0  0  0  0
 36 37  1  0  0  0  0
 37 30  1  0  0  0  0
 38 37  2  0  0  0  0
M  END
>  <ADSCOR>
   -8.74

$$$$
7
 OpenBabel08042116023D

 39 42  0  0  1  0  0  0  0  0999 V2000
  -19.4380   18.9510  -28.8750 C   0  0  1  0  0  0  0  0  0  0  0  0
  -24.8460   17.0070  -31.9510 C   0  0  0  0  0  0  0  0  0  0  0  0
  -24.6050   18.1210  -31.1460 C   0  0  0  0  0  0  0  0  0  0  0  0
  -23.3370   18.3360  -30.5810 C   0  0  0  0  0  0  0  0  0  0  0  0
  -22.3000   17.4080  -30.8370 C   0  0  0  0  0  0  0  0  0  0  0  0
  -21.0320   17.6230  -30.2720 C   0  0  0  0  0  0  0  0  0  0  0  0
  -20.7910   18.7370  -29.4670 C   0  0  0  0  0  0  0  0  0  0  0  0
  -21.8100   19.6490  -29.2160 C   0  0  0  0  0  0  0  0  0  0  0  0
  -22.5590   16.2920  -31.6490 C   0  0  0  0  0  0  0  0  0  0  0  0
  -23.0760   19.4510  -29.7690 C   0  0  0  0  0  0  0  0  0  0  0  0
  -23.8250   16.0950  -32.2020 C   0  0  0  0  0  0  0  0  0  0  0  0
  -19.4790   19.9020  -27.7440 N   0  0  0  0  0  0  0  0  0  0  0  0
  -19.6240   19.5490  -26.8180 H   0  0  0  0  0  0  0  0  0  0  0  0
  -19.3240   21.2470  -27.9260 C   0  0  0  0  0  0  0  0  0  0  0  0
  -19.1380   21.8220  -28.9980 O   0  0  0  0  0  0  0  0  0  0  0  0
  -19.4090   22.0050  -26.6140 C   0  0  0  0  0  0  0  0  0  0  0  0
  -18.0350   22.3350  -26.1490 C   0  0  0  0  0  0  0  0  0  0  0  0
  -16.8300   21.5920  -26.6080 C   0  0  0  0  0  0  0  0  0  0  0  0
  -15.7300   22.1260  -25.9810 O   0  0  0  0  0  0  0  0  0  0  0  0
  -16.2130   23.1510  -25.2010 N   0  0  0  0  0  0  0  0  0  0  0  0
  -15.6300   23.6400  -24.5390 H   0  0  0  0  0  0  0  0  0  0  0  0
  -16.8210   20.6670  -27.4010 O   0  0  0  0  0  0  0  0  0  0  0  0
  -17.5630   23.2500  -25.2950 C   0  0  0  0  0  0  0  0  0  0  0  0
  -18.3060   24.2640  -24.5010 C   0  0  0  0  0  0  0  0  0  0  0  0
  -18.7380   17.6510  -28.4100 C   0  0  0  0  0  0  0  0  0  0  0  0
  -19.5030   16.9670  -27.4010 N   0  0  0  0  0  0  0  0  0  0  0  0
  -20.0810   16.1810  -27.6920 H   0  0  0  0  0  0  0  0  0  0  0  0
  -19.4430   17.3190  -26.0600 C   0  0  0  0  0  0  0  0  0  0  0  0
  -18.7550   18.2210  -25.5950 O   0  0  0  0  0  0  0  0  0  0  0  0
  -20.3210   16.4610  -25.2170 C   0  0  0  0  0  0  0  0  0  0  0  0
  -20.0050   16.2330  -23.9350 C   0  0  0  0  0  0  0  0  0  0  0  0
  -20.8050   15.4160  -23.0660 C   0  0  0  0  0  0  0  0  0  0  0  0
  -20.4210   14.0020  -22.8150 C   0  0  0  0  0  0  0  0  0  0  0  0
  -19.4310   13.4850  -23.3240 O   0  0  0  0  0  0  0  0  0  0  0  0
  -21.2830   13.3400  -21.9610 N   0  0  0  0  0  0  0  0  0  0  0  0
  -21.0940   12.3680  -21.7360 H   0  0  0  0  0  0  0  0  0  0  0  0
  -22.3840   13.9550  -21.4100 C   0  0  0  0  0  0  0  0  0  0  0  0
  -22.7280   15.1830  -21.6200 N   0  0  0  0  0  0  0  0  0  0  0  0
  -21.9060   15.8910  -22.4630 C   0  0  0  0  0  0  0  0  0  0  0  0
  1 25  1  1  0  0  0
  1 12  1  0  0  0  0
  2  3  1  0  0  0  0
  3  4  2  0  0  0  0
  4 10  1  0  0  0  0
  5  4  1  0  0  0  0
  5  6  1  0  0  0  0
  6  7  2  0  0  0  0
  7  8  1  0  0  0  0
  7  1  1  0  0  0  0
  9  5  2  0  0  0  0
 10  8  2  0  0  0  0
 11  2  2  0  0  0  0
 11  9  1  0  0  0  0
 12 13  1  0  0  0  0
 14 12  1  0  0  0  0
 14 16  1  0  0  0  0
 15 14  2  0  0  0  0
 16 17  1  0  0  0  0
 17 23  2  0  0  0  0
 18 17  1  0  0  0  0
 18 19  1  0  0  0  0
 19 20  1  0  0  0  0
 20 21  1  0  0  0  0
 22 18  2  0  0  0  0
 23 20  1  0  0  0  0
 23 24  1  0  0  0  0
 25 26  1  0  0  0  0
 26 28  1  0  0  0  0
 27 26  1  0  0  0  0
 28 29  2  0  0  0  0
 28 30  1  0  0  0  0
 30 31  2  0  0  0  0
 31 32  1  0  0  0  0
 32 33  1  0  0  0  0
 32 39  2  0  0  0  0
 33 35  1  0  0  0  0
 34 33  2  0  0  0  0
 35 36  1  0  0  0  0
 35 37  1  0  0  0  0
 38 37  2  0  0  0  0
 39 38  1  0  0  0  0
M  END
>  <ADSCOR>
   -9.56

$$$$
70
 OpenBabel08042116023D

 37 40  0  0  1  0  0  0  0  0999 V2000
  -23.1190   12.7700  -28.6420 C   0  0  0  0  0  0  0  0  0  0  0  0
  -22.3290   13.5080  -27.7590 C   0  0  0  0  0  0  0  0  0  0  0  0
  -21.4710   14.4600  -28.2840 C   0  0  0  0  0  0  0  0  0  0  0  0
  -20.5620   15.3890  -27.5390 C   0  0  0  0  0  0  0  0  0  0  0  0
  -19.6160   15.8400  -28.6680 C   0  0  1  0  0  0  0  0  0  0  0  0
  -20.4370   15.7940  -29.9800 C   0  0  1  0  0  0  0  0  0  0  0  0
  -21.4060   14.6930  -29.6650 C   0  0  0  0  0  0  0  0  0  0  0  0
  -22.1920   13.9690  -30.5460 C   0  0  0  0  0  0  0  0  0  0  0  0
  -23.0510   12.9980  -30.0260 C   0  0  0  0  0  0  0  0  0  0  0  0
  -19.0000   17.1090  -28.3940 N   0  0  0  0  0  0  0  0  0  0  0  0
  -17.9910   17.1860  -28.5100 H   0  0  0  0  0  0  0  0  0  0  0  0
  -19.7340   18.2260  -28.0200 C   0  0  0  0  0  0  0  0  0  0  0  0
  -20.9530   18.2600  -27.8860 O   0  0  0  0  0  0  0  0  0  0  0  0
  -18.8690   19.4170  -27.7970 C   0  0  0  0  0  0  0  0  0  0  0  0
  -18.7890   19.9700  -26.5800 C   0  0  0  0  0  0  0  0  0  0  0  0
  -17.9750   21.1190  -26.2940 C   0  0  0  0  0  0  0  0  0  0  0  0
  -18.3370   22.0240  -25.1730 C   0  0  0  0  0  0  0  0  0  0  0  0
  -19.3180   21.8350  -24.4600 O   0  0  0  0  0  0  0  0  0  0  0  0
  -17.4650   23.0860  -25.0190 N   0  0  0  0  0  0  0  0  0  0  0  0
  -17.6390   23.7540  -24.2740 H   0  0  0  0  0  0  0  0  0  0  0  0
  -16.3760   23.2640  -25.8400 C   0  0  0  0  0  0  0  0  0  0  0  0
  -16.0510   22.4840  -26.8170 N   0  0  0  0  0  0  0  0  0  0  0  0
  -16.8830   21.4090  -27.0180 C   0  0  0  0  0  0  0  0  0  0  0  0
  -21.1230   17.0240  -30.2800 N   0  0  0  0  0  0  0  0  0  0  0  0
  -21.0160   17.8050  -29.6350 H   0  0  0  0  0  0  0  0  0  0  0  0
  -21.9240   17.2020  -31.4030 C   0  0  0  0  0  0  0  0  0  0  0  0
  -22.1380   16.3460  -32.2580 O   0  0  0  0  0  0  0  0  0  0  0  0
  -22.5130   18.5890  -31.4500 C   0  0  0  0  0  0  0  0  0  0  0  0
  -21.4300   19.5850  -31.4230 N   0  0  0  0  0  0  0  0  0  0  0  0
  -21.3540   20.4290  -30.3400 N   0  0  0  0  0  0  0  0  0  0  0  0
  -22.0540   20.3200  -29.6130 H   0  0  0  0  0  0  0  0  0  0  0  0
  -20.3770   21.3850  -30.2290 C   0  0  0  0  0  0  0  0  0  0  0  0
  -20.2790   22.1540  -29.2760 O   0  0  0  0  0  0  0  0  0  0  0  0
  -19.4090   21.4610  -31.3390 C   0  0  0  0  0  0  0  0  0  0  0  0
  -19.4960   20.6380  -32.3840 C   0  0  0  0  0  0  0  0  0  0  0  0
  -20.5600   19.6140  -32.4740 C   0  0  0  0  0  0  0  0  0  0  0  0
  -20.5950   18.8780  -33.4590 O   0  0  0  0  0  0  0  0  0  0  0  0
  1  2  2  0  0  0  0
  3  2  1  0  0  0  0
  3  4  1  0  0  0  0
  5 10  1  1  0  0  0
  5  4  1  0  0  0  0
  6 24  1  1  0  0  0
  6  7  1  0  0  0  0
  6  5  1  0  0  0  0
  7  3  2  0  0  0  0
  8  9  2  0  0  0  0
  8  7  1  0  0  0  0
  9  1  1  0  0  0  0
 10 12  1  0  0  0  0
 11 10  1  0  0  0  0
 12 13  2  0  0  0  0
 12 14  1  0  0  0  0
 14 15  2  0  0  0  0
 15 16  1  0  0  0  0
 16 17  1  0  0  0  0
 17 19  1  0  0  0  0
 17 18  2  0  0  0  0
 19 20  1  0  0  0  0
 21 19  1  0  0  0  0
 22 21  2  0  0  0  0
 23 22  1  0  0  0  0
 23 16  2  0  0  0  0
 24 25  1  0  0  0  0
 26 24  1  0  0  0  0
 27 26  2  0  0  0  0
 28 29  1  0  0  0  0
 28 26  1  0  0  0  0
 29 30  1  0  0  0  0
 30 32  1  0  0  0  0
 30 31  1  0  0  0  0
 32 33  2  0  0  0  0
 34 32  1  0  0  0  0
 35 34  2  0  0  0  0
 36 35  1  0  0  0  0
 36 29  1  0  0  0  0
 37 36  2  0  0  0  0
M  END
>  <ADSCOR>
   -9.11

$$$$
71
 OpenBabel08042116023D

 37 40  0  0  1  0  0  0  0  0999 V2000
  -21.3930   13.7160  -29.6070 C   0  0  0  0  0  0  0  0  0  0  0  0
  -22.2840   14.0590  -28.5890 C   0  0  0  0  0  0  0  0  0  0  0  0
  -21.7830   14.2510  -27.3130 C   0  0  0  0  0  0  0  0  0  0  0  0
  -22.5340   14.6550  -26.0810 C   0  0  0  0  0  0  0  0  0  0  0  0
  -21.5230   14.2700  -24.9840 C   0  0  1  0  0  0  0  0  0  0  0  0
  -20.1130   14.4160  -25.6070 C   0  0  1  0  0  0  0  0  0  0  0  0
  -20.4130   14.1210  -27.0470 C   0  0  0  0  0  0  0  0  0  0  0  0
  -19.5220   13.7870  -28.0530 C   0  0  0  0  0  0  0  0  0  0  0  0
  -20.0210   13.5800  -29.3410 C   0  0  0  0  0  0  0  0  0  0  0  0
  -21.7200   15.0140  -23.7710 N   0  0  0  0  0  0  0  0  0  0  0  0
  -22.6390   15.4220  -23.6000 H   0  0  0  0  0  0  0  0  0  0  0  0
  -20.7250   15.2100  -22.8180 C   0  0  0  0  0  0  0  0  0  0  0  0
  -19.5790   14.7760  -22.8990 O   0  0  0  0  0  0  0  0  0  0  0  0
  -21.2210   16.0320  -21.6560 C   0  0  0  0  0  0  0  0  0  0  0  0
  -21.2990   17.4470  -22.0500 N   0  0  0  0  0  0  0  0  0  0  0  0
  -20.2230   18.2570  -21.7690 N   0  0  0  0  0  0  0  0  0  0  0  0
  -19.4290   17.8320  -21.3000 H   0  0  0  0  0  0  0  0  0  0  0  0
  -20.2070   19.5870  -22.1030 C   0  0  0  0  0  0  0  0  0  0  0  0
  -19.2640   20.3390  -21.8670 O   0  0  0  0  0  0  0  0  0  0  0  0
  -21.4110   20.1050  -22.7800 C   0  0  0  0  0  0  0  0  0  0  0  0
  -22.4460   19.3090  -23.0440 C   0  0  0  0  0  0  0  0  0  0  0  0
  -22.4340   17.8780  -22.6730 C   0  0  0  0  0  0  0  0  0  0  0  0
  -23.4150   17.1840  -22.9420 O   0  0  0  0  0  0  0  0  0  0  0  0
  -19.5420   15.7280  -25.4490 N   0  0  0  0  0  0  0  0  0  0  0  0
  -18.8430   15.8580  -24.7210 H   0  0  0  0  0  0  0  0  0  0  0  0
  -19.8820   16.7890  -26.2750 C   0  0  0  0  0  0  0  0  0  0  0  0
  -20.6820   16.7360  -27.2030 O   0  0  0  0  0  0  0  0  0  0  0  0
  -19.1530   18.0360  -25.9130 C   0  0  0  0  0  0  0  0  0  0  0  0
  -19.1740   19.0900  -26.7380 C   0  0  0  0  0  0  0  0  0  0  0  0
  -18.4930   20.3220  -26.4530 C   0  0  0  0  0  0  0  0  0  0  0  0
  -19.2080   21.4190  -25.7490 C   0  0  0  0  0  0  0  0  0  0  0  0
  -20.3770   21.3240  -25.3890 O   0  0  0  0  0  0  0  0  0  0  0  0
  -18.4280   22.5420  -25.5450 N   0  0  0  0  0  0  0  0  0  0  0  0
  -18.8380   23.3400  -25.0700 H   0  0  0  0  0  0  0  0  0  0  0  0
  -17.1190   22.6110  -25.9640 C   0  0  0  0  0  0  0  0  0  0  0  0
  -16.4880   21.6650  -26.5760 N   0  0  0  0  0  0  0  0  0  0  0  0
  -17.2140   20.5220  -26.8060 C   0  0  0  0  0  0  0  0  0  0  0  0
  1  9  2  0  0  0  0
  1  2  1  0  0  0  0
  2  3  2  0  0  0  0
  3  7  1  0  0  0  0
  3  4  1  0  0  0  0
  4  5  1  0  0  0  0
  5 10  1  1  0  0  0
  6 24  1  6  0  0  0
  6  5  1  0  0  0  0
  7  6  1  0  0  0  0
  8  7  2  0  0  0  0
  9  8  1  0  0  0  0
 10 11  1  0  0  0  0
 10 12  1  0  0  0  0
 12 14  1  0  0  0  0
 13 12  2  0  0  0  0
 15 16  1  0  0  0  0
 15 14  1  0  0  0  0
 16 17  1  0  0  0  0
 18 19  2  0  0  0  0
 18 16  1  0  0  0  0
 20 18  1  0  0  0  0
 21 20  2  0  0  0  0
 21 22  1  0  0  0  0
 22 15  1  0  0  0  0
 23 22  2  0  0  0  0
 24 25  1  0  0  0  0
 26 28  1  0  0  0  0
 26 24  1  0  0  0  0
 27 26  2  0  0  0  0
 29 30  1  0  0  0  0
 29 28  2  0  0  0  0
 30 31  1  0  0  0  0
 31 33  1  0  0  0  0
 31 32  2  0  0  0  0
 33 34  1  0  0  0  0
 35 33  1  0  0  0  0
 36 35  2  0  0  0  0
 37 36  1  0  0  0  0
 37 30  2  0  0  0  0
M  END
>  <ADSCOR>
   -7.96

$$$$
72
 OpenBabel08042116023D

 36 39  0  0  1  0  0  0  0  0999 V2000
  -20.7910   14.8010  -21.1320 C   0  0  0  0  0  0  0  0  0  0  0  0
  -20.5990   16.0030  -21.8150 C   0  0  0  0  0  0  0  0  0  0  0  0
  -20.3470   15.9540  -23.1750 C   0  0  0  0  0  0  0  0  0  0  0  0
  -20.1470   17.1020  -24.1160 C   0  0  0  0  0  0  0  0  0  0  0  0
  -19.5000   16.3870  -25.3170 C   0  0  1  0  0  0  0  0  0  0  0  0
  -20.0530   14.9400  -25.3230 C   0  0  1  0  0  0  0  0  0  0  0  0
  -20.3000   14.7300  -23.8580 C   0  0  0  0  0  0  0  0  0  0  0  0
  -20.4950   13.5340  -23.1880 C   0  0  0  0  0  0  0  0  0  0  0  0
  -20.7380   13.5750  -21.8140 C   0  0  0  0  0  0  0  0  0  0  0  0
  -19.6890   17.1020  -26.5490 N   0  0  0  0  0  0  0  0  0  0  0  0
  -20.1650   16.6280  -27.3150 H   0  0  0  0  0  0  0  0  0  0  0  0
  -19.2550   18.4070  -26.7480 C   0  0  0  0  0  0  0  0  0  0  0  0
  -18.6690   19.0900  -25.9080 O   0  0  0  0  0  0  0  0  0  0  0  0
  -19.5700   18.9370  -28.1330 C   0  0  0  0  0  0  0  0  0  0  0  0
  -20.8800   19.6410  -28.1020 C   0  0  0  0  0  0  0  0  0  0  0  0
  -21.2570   20.5430  -29.0210 C   0  0  0  0  0  0  0  0  0  0  0  0
  -22.4790   21.1660  -28.9460 N   0  0  0  0  0  0  0  0  0  0  0  0
  -22.7060   21.8410  -29.6710 H   0  0  0  0  0  0  0  0  0  0  0  0
  -23.4040   20.9230  -27.9450 C   0  0  0  0  0  0  0  0  0  0  0  0
  -24.4990   21.4730  -27.8680 O   0  0  0  0  0  0  0  0  0  0  0  0
  -22.9900   19.9200  -26.9210 C   0  0  0  0  0  0  0  0  0  0  0  0
  -21.7910   19.3300  -27.0190 C   0  0  0  0  0  0  0  0  0  0  0  0
  -21.2640   14.7840  -26.0860 N   0  0  0  0  0  0  0  0  0  0  0  0
  -21.2250   14.2410  -26.9470 H   0  0  0  0  0  0  0  0  0  0  0  0
  -22.4840   15.3350  -25.7090 C   0  0  0  0  0  0  0  0  0  0  0  0
  -22.6720   16.0080  -24.6980 O   0  0  0  0  0  0  0  0  0  0  0  0
  -23.5700   15.0070  -26.7020 C   0  0  0  0  0  0  0  0  0  0  0  0
  -22.9630   14.5810  -27.9710 N   0  0  0  0  0  0  0  0  0  0  0  0
  -23.1930   13.2930  -28.3980 N   0  0  0  0  0  0  0  0  0  0  0  0
  -23.7710   12.7030  -27.8100 H   0  0  0  0  0  0  0  0  0  0  0  0
  -22.6700   12.8100  -29.5710 C   0  0  0  0  0  0  0  0  0  0  0  0
  -22.8550   11.6680  -29.9820 O   0  0  0  0  0  0  0  0  0  0  0  0
  -21.8430   13.7490  -30.3530 C   0  0  0  0  0  0  0  0  0  0  0  0
  -21.6280   14.9930  -29.9270 C   0  0  0  0  0  0  0  0  0  0  0  0
  -22.2060   15.4870  -28.6580 C   0  0  0  0  0  0  0  0  0  0  0  0
  -21.9780   16.6440  -28.3100 O   0  0  0  0  0  0  0  0  0  0  0  0
  2  1  1  0  0  0  0
  3  2  2  0  0  0  0
  4  3  1  0  0  0  0
  5 10  1  6  0  0  0
  5  4  1  0  0  0  0
  6 23  1  6  0  0  0
  6  5  1  0  0  0  0
  6  7  1  0  0  0  0
  7  8  2  0  0  0  0
  7  3  1  0  0  0  0
  8  9  1  0  0  0  0
  9  1  2  0  0  0  0
 11 10  1  0  0  0  0
 12 10  1  0  0  0  0
 12 13  2  0  0  0  0
 14 15  1  0  0  0  0
 14 12  1  0  0  0  0
 15 22  1  0  0  0  0
 16 17  1  0  0  0  0
 16 15  2  0  0  0  0
 17 19  1  0  0  0  0
 18 17  1  0  0  0  0
 19 20  2  0  0  0  0
 19 21  1  0  0  0  0
 22 21  2  0  0  0  0
 23 25  1  0  0  0  0
 24 23  1  0  0  0  0
 25 26  2  0  0  0  0
 27 25  1  0  0  0  0
 28 27  1  0  0  0  0
 29 28  1  0  0  0  0
 29 30  1  0  0  0  0
 31 29  1  0  0  0  0
 32 31  2  0  0  0  0
 33 34  2  0  0  0  0
 33 31  1  0  0  0  0
 34 35  1  0  0  0  0
 35 36  2  0  0  0  0
 35 28  1  0  0  0  0
M  END
>  <ADSCOR>
   -7.19

$$$$
73
 OpenBabel08042116023D

 36 39  0  0  1  0  0  0  0  0999 V2000
  -23.2330   12.6110  -28.9710 C   0  0  0  0  0  0  0  0  0  0  0  0
  -22.3010   13.1550  -28.0860 C   0  0  0  0  0  0  0  0  0  0  0  0
  -21.4940   14.1870  -28.5340 C   0  0  0  0  0  0  0  0  0  0  0  0
  -20.4570   14.9450  -27.7620 C   0  0  0  0  0  0  0  0  0  0  0  0
  -19.6650   15.6040  -28.9070 C   0  0  1  0  0  0  0  0  0  0  0  0
  -20.6630   15.8230  -30.0700 C   0  0  1  0  0  0  0  0  0  0  0  0
  -21.6150   14.6860  -29.8380 C   0  0  0  0  0  0  0  0  0  0  0  0
  -22.5420   14.1550  -30.7200 C   0  0  0  0  0  0  0  0  0  0  0  0
  -23.3520   13.1070  -30.2800 C   0  0  0  0  0  0  0  0  0  0  0  0
  -18.9730   16.7900  -28.4840 N   0  0  0  0  0  0  0  0  0  0  0  0
  -18.0220   16.9400  -28.8190 H   0  0  0  0  0  0  0  0  0  0  0  0
  -19.5330   17.7420  -27.6410 C   0  0  0  0  0  0  0  0  0  0  0  0
  -20.6620   17.6910  -27.1630 O   0  0  0  0  0  0  0  0  0  0  0  0
  -18.5960   18.8670  -27.3640 C   0  0  0  0  0  0  0  0  0  0  0  0
  -18.9910   19.8930  -26.5950 C   0  0  0  0  0  0  0  0  0  0  0  0
  -18.1470   21.0510  -26.2500 C   0  0  0  0  0  0  0  0  0  0  0  0
  -16.8050   21.0860  -26.5950 C   0  0  0  0  0  0  0  0  0  0  0  0
  -15.9780   22.1160  -26.3100 N   0  0  0  0  0  0  0  0  0  0  0  0
  -16.5240   23.1600  -25.6480 C   0  0  0  0  0  0  0  0  0  0  0  0
  -17.8520   23.2220  -25.2580 C   0  0  0  0  0  0  0  0  0  0  0  0
  -18.3840   24.4060  -24.5320 C   0  0  0  0  0  0  0  0  0  0  0  0
  -18.6730   22.1440  -25.5690 C   0  0  0  0  0  0  0  0  0  0  0  0
  -21.3410   17.0920  -30.0230 N   0  0  0  0  0  0  0  0  0  0  0  0
  -21.1150   17.7320  -29.2640 H   0  0  0  0  0  0  0  0  0  0  0  0
  -22.2900   17.4900  -30.9590 C   0  0  0  0  0  0  0  0  0  0  0  0
  -22.6560   16.8190  -31.9210 O   0  0  0  0  0  0  0  0  0  0  0  0
  -22.8300   18.8630  -30.6510 C   0  0  0  0  0  0  0  0  0  0  0  0
  -22.0460   19.8740  -31.3760 N   0  0  0  0  0  0  0  0  0  0  0  0
  -22.6530   20.5450  -32.4110 N   0  0  0  0  0  0  0  0  0  0  0  0
  -23.6170   20.3040  -32.6220 H   0  0  0  0  0  0  0  0  0  0  0  0
  -22.0000   21.5070  -33.1400 C   0  0  0  0  0  0  0  0  0  0  0  0
  -22.5120   22.1240  -34.0700 O   0  0  0  0  0  0  0  0  0  0  0  0
  -20.6030   21.7820  -32.7540 C   0  0  0  0  0  0  0  0  0  0  0  0
  -20.0260   21.1240  -31.7490 C   0  0  0  0  0  0  0  0  0  0  0  0
  -20.7570   20.0930  -30.9800 C   0  0  0  0  0  0  0  0  0  0  0  0
  -20.1790   19.5140  -30.0620 O   0  0  0  0  0  0  0  0  0  0  0  0
  1  2  2  0  0  0  0
  3  2  1  0  0  0  0
  3  4  1  0  0  0  0
  5 10  1  1  0  0  0
  5  4  1  0  0  0  0
  6 23  1  1  0  0  0
  6  7  1  0  0  0  0
  6  5  1  0  0  0  0
  7  3  2  0  0  0  0
  8  9  2  0  0  0  0
  8  7  1  0  0  0  0
  9  1  1  0  0  0  0
 10 12  1  0  0  0  0
 11 10  1  0  0  0  0
 12 14  1  0  0  0  0
 12 13  2  0  0  0  0
 14 15  2  0  0  0  0
 15 16  1  0  0  0  0
 16 22  2  0  0  0  0
 17 18  2  0  0  0  0
 17 16  1  0  0  0  0
 18 19  1  0  0  0  0
 19 20  2  0  0  0  0
 20 21  1  0  0  0  0
 22 20  1  0  0  0  0
 23 24  1  0  0  0  0
 25 27  1  0  0  0  0
 25 23  1  0  0  0  0
 26 25  2  0  0  0  0
 28 35  1  0  0  0  0
 28 27  1  0  0  0  0
 29 28  1  0  0  0  0
 30 29  1  0  0  0  0
 31 33  1  0  0  0  0
 31 29  1  0  0  0  0
 32 31  2  0  0  0  0
 33 34  2  0  0  0  0
 34 35  1  0  0  0  0
 35 36  2  0  0  0  0
M  END
>  <ADSCOR>
   -9.16

$$$$
74
 OpenBabel08042116023D

 38 41  0  0  1  0  0  0  0  0999 V2000
  -21.1200   14.1590  -21.5410 C   0  0  0  0  0  0  0  0  0  0  0  0
  -20.4230   13.5870  -22.6060 C   0  0  0  0  0  0  0  0  0  0  0  0
  -20.5590   14.1550  -23.8620 C   0  0  0  0  0  0  0  0  0  0  0  0
  -19.9410   13.6930  -25.1450 C   0  0  0  0  0  0  0  0  0  0  0  0
  -20.1010   14.9550  -26.0120 C   0  0  2  0  0  0  0  0  0  0  0  0
  -21.3950   15.6540  -25.5270 C   0  0  1  0  0  0  0  0  0  0  0  0
  -21.3830   15.2700  -24.0710 C   0  0  0  0  0  0  0  0  0  0  0  0
  -22.0870   15.8350  -23.0180 C   0  0  0  0  0  0  0  0  0  0  0  0
  -21.9460   15.2750  -21.7450 C   0  0  0  0  0  0  0  0  0  0  0  0
  -20.1220   14.6600  -27.4180 N   0  0  0  0  0  0  0  0  0  0  0  0
  -20.6720   15.2600  -28.0300 H   0  0  0  0  0  0  0  0  0  0  0  0
  -19.4280   13.5970  -27.9840 C   0  0  0  0  0  0  0  0  0  0  0  0
  -18.7300   12.8000  -27.3600 O   0  0  0  0  0  0  0  0  0  0  0  0
  -19.6150   13.4960  -29.4860 C   0  0  0  0  0  0  0  0  0  0  0  0
  -21.0650   13.3590  -29.7910 C   0  0  0  0  0  0  0  0  0  0  0  0
  -21.8340   14.5900  -30.1370 C   0  0  0  0  0  0  0  0  0  0  0  0
  -21.3070   15.6970  -30.1740 O   0  0  0  0  0  0  0  0  0  0  0  0
  -23.1700   14.3550  -30.4040 N   0  0  0  0  0  0  0  0  0  0  0  0
  -23.7640   15.1420  -30.6470 H   0  0  0  0  0  0  0  0  0  0  0  0
  -23.7170   13.0950  -30.3500 C   0  0  0  0  0  0  0  0  0  0  0  0
  -23.0670   12.0200  -30.0530 N   0  0  0  0  0  0  0  0  0  0  0  0
  -21.7320   12.1950  -29.7780 C   0  0  0  0  0  0  0  0  0  0  0  0
  -21.3840   17.1520  -25.7960 C   0  0  0  0  0  0  0  0  0  0  0  0
  -22.3630   17.4760  -26.7810 N   0  0  0  0  0  0  0  0  0  0  0  0
  -23.3300   17.6300  -26.4780 H   0  0  0  0  0  0  0  0  0  0  0  0
  -22.0540   17.6320  -28.1310 C   0  0  0  0  0  0  0  0  0  0  0  0
  -20.9310   17.5090  -28.6110 O   0  0  0  0  0  0  0  0  0  0  0  0
  -23.2450   17.9740  -28.9550 C   0  0  0  0  0  0  0  0  0  0  0  0
  -23.3090   17.5880  -30.2370 C   0  0  0  0  0  0  0  0  0  0  0  0
  -24.4280   17.8840  -31.0880 C   0  0  0  0  0  0  0  0  0  0  0  0
  -24.7070   17.0300  -32.2690 C   0  0  0  0  0  0  0  0  0  0  0  0
  -24.0140   16.0610  -32.5640 O   0  0  0  0  0  0  0  0  0  0  0  0
  -25.8120   17.4340  -32.9950 N   0  0  0  0  0  0  0  0  0  0  0  0
  -26.0630   16.8940  -33.8180 H   0  0  0  0  0  0  0  0  0  0  0  0
  -26.5720   18.5310  -32.6390 C   0  0  0  0  0  0  0  0  0  0  0  0
  -26.3310   19.2790  -31.6090 N   0  0  0  0  0  0  0  0  0  0  0  0
  -27.7370   18.8310  -33.5370 C   0  0  0  0  0  0  0  0  0  0  0  0
  -25.2420   18.9220  -30.8500 C   0  0  0  0  0  0  0  0  0  0  0  0
  2  1  2  0  0  0  0
  3  2  1  0  0  0  0
  4  3  1  0  0  0  0
  5 10  1  6  0  0  0
  5  6  1  0  0  0  0
  5  4  1  0  0  0  0
  6 23  1  1  0  0  0
  6  7  1  0  0  0  0
  7  3  2  0  0  0  0
  7  8  1  0  0  0  0
  8  9  2  0  0  0  0
  9  1  1  0  0  0  0
 11 10  1  0  0  0  0
 12 10  1  0  0  0  0
 12 13  2  0  0  0  0
 14 12  1  0  0  0  0
 15 22  2  0  0  0  0
 15 14  1  0  0  0  0
 16 15  1  0  0  0  0
 17 16  2  0  0  0  0
 18 20  1  0  0  0  0
 18 16  1  0  0  0  0
 19 18  1  0  0  0  0
 20 21  2  0  0  0  0
 21 22  1  0  0  0  0
 24 25  1  0  0  0  0
 24 23  1  0  0  0  0
 26 24  1  0  0  0  0
 27 26  2  0  0  0  0
 28 26  1  0  0  0  0
 29 28  2  0  0  0  0
 30 38  2  0  0  0  0
 30 29  1  0  0  0  0
 31 30  1  0  0  0  0
 32 31  2  0  0  0  0
 33 35  1  0  0  0  0
 33 31  1  0  0  0  0
 34 33  1  0  0  0  0
 35 36  2  0  0  0  0
 36 38  1  0  0  0  0
 37 35  1  0  0  0  0
M  END
>  <ADSCOR>
   -7.95

$$$$
75
 OpenBabel08042116023D

 35 38  0  0  1  0  0  0  0  0999 V2000
  -20.9420   14.3340  -20.8890 C   0  0  0  0  0  0  0  0  0  0  0  0
  -21.2830   15.5220  -21.5380 C   0  0  0  0  0  0  0  0  0  0  0  0
  -20.8630   15.7000  -22.8450 C   0  0  0  0  0  0  0  0  0  0  0  0
  -21.1360   16.8640  -23.7480 C   0  0  0  0  0  0  0  0  0  0  0  0
  -20.0690   16.6450  -24.8370 C   0  0  1  0  0  0  0  0  0  0  0  0
  -19.8280   15.1180  -24.9230 C   0  0  1  0  0  0  0  0  0  0  0  0
  -20.1280   14.7090  -23.5110 C   0  0  0  0  0  0  0  0  0  0  0  0
  -19.7920   13.5260  -22.8750 C   0  0  0  0  0  0  0  0  0  0  0  0
  -20.2010   13.3430  -21.5520 C   0  0  0  0  0  0  0  0  0  0  0  0
  -20.4240   17.2640  -26.0850 N   0  0  0  0  0  0  0  0  0  0  0  0
  -21.2570   16.9270  -26.5660 H   0  0  0  0  0  0  0  0  0  0  0  0
  -19.7000   18.3180  -26.6250 C   0  0  0  0  0  0  0  0  0  0  0  0
  -18.7070   18.8270  -26.1170 O   0  0  0  0  0  0  0  0  0  0  0  0
  -20.2700   18.7860  -27.9190 C   0  0  0  0  0  0  0  0  0  0  0  0
  -19.5260   19.5260  -28.7500 C   0  0  0  0  0  0  0  0  0  0  0  0
  -20.0120   20.0110  -30.0120 C   0  0  0  0  0  0  0  0  0  0  0  0
  -20.3450   21.4500  -30.1760 C   0  0  0  0  0  0  0  0  0  0  0  0
  -20.2210   22.2660  -29.2680 O   0  0  0  0  0  0  0  0  0  0  0  0
  -20.8020   21.7690  -31.4420 N   0  0  0  0  0  0  0  0  0  0  0  0
  -21.0520   22.7330  -31.6400 H   0  0  0  0  0  0  0  0  0  0  0  0
  -20.9280   20.8250  -32.4350 C   0  0  0  0  0  0  0  0  0  0  0  0
  -20.6410   19.5720  -32.3050 N   0  0  0  0  0  0  0  0  0  0  0  0
  -20.1820   19.1960  -31.0650 C   0  0  0  0  0  0  0  0  0  0  0  0
  -20.6910   14.4450  -25.8580 N   0  0  0  0  0  0  0  0  0  0  0  0
  -21.5370   14.0040  -25.5020 H   0  0  0  0  0  0  0  0  0  0  0  0
  -20.4300   14.3650  -27.2220 C   0  0  0  0  0  0  0  0  0  0  0  0
  -19.4510   14.8500  -27.7820 O   0  0  0  0  0  0  0  0  0  0  0  0
  -21.5060   13.5970  -27.9470 C   0  0  0  0  0  0  0  0  0  0  0  0
  -21.9620   14.3700  -29.1120 N   0  0  0  0  0  0  0  0  0  0  0  0
  -22.3760   13.6780  -30.2510 C   0  0  0  0  0  0  0  0  0  0  0  0
  -22.3990   12.4560  -30.3840 O   0  0  0  0  0  0  0  0  0  0  0  0
  -22.8220   14.5360  -31.3910 C   0  0  0  0  0  0  0  0  0  0  0  0
  -22.8090   15.8680  -31.2740 C   0  0  0  0  0  0  0  0  0  0  0  0
  -22.3660   16.5000  -30.0610 C   0  0  0  0  0  0  0  0  0  0  0  0
  -21.9620   15.7470  -29.0320 C   0  0  0  0  0  0  0  0  0  0  0  0
  2  1  1  0  0  0  0
  3  2  2  0  0  0  0
  4  3  1  0  0  0  0
  5 10  1  6  0  0  0
  5  4  1  0  0  0  0
  6 24  1  6  0  0  0
  6  5  1  0  0  0  0
  6  7  1  0  0  0  0
  7  8  2  0  0  0  0
  7  3  1  0  0  0  0
  8  9  1  0  0  0  0
  9  1  2  0  0  0  0
 11 10  1  0  0  0  0
 12 13  2  0  0  0  0
 12 10  1  0  0  0  0
 14 12  1  0  0  0  0
 15 14  2  0  0  0  0
 16 15  1  0  0  0  0
 17 16  1  0  0  0  0
 17 18  2  0  0  0  0
 19 17  1  0  0  0  0
 20 19  1  0  0  0  0
 21 22  2  0  0  0  0
 21 19  1  0  0  0  0
 22 23  1  0  0  0  0
 23 16  2  0  0  0  0
 24 25  1  0  0  0  0
 26 24  1  0  0  0  0
 27 26  2  0  0  0  0
 28 26  1  0  0  0  0
 29 35  1  0  0  0  0
 29 28  1  0  0  0  0
 30 29  1  0  0  0  0
 31 30  2  0  0  0  0
 32 33  2  0  0  0  0
 32 30  1  0  0  0  0
 33 34  1  0  0  0  0
 34 35  2  0  0  0  0
M  END
>  <ADSCOR>
   -8.50

$$$$
76
 OpenBabel08042116023D

 35 38  0  0  1  0  0  0  0  0999 V2000
  -22.9130   12.3910  -29.3920 C   0  0  0  0  0  0  0  0  0  0  0  0
  -21.7790   12.7920  -28.6840 C   0  0  0  0  0  0  0  0  0  0  0  0
  -21.2390   14.0370  -28.9600 C   0  0  0  0  0  0  0  0  0  0  0  0
  -20.0590   14.6920  -28.3100 C   0  0  0  0  0  0  0  0  0  0  0  0
  -19.7410   15.8010  -29.3310 C   0  0  1  0  0  0  0  0  0  0  0  0
  -21.0830   16.1870  -30.0000 C   0  0  1  0  0  0  0  0  0  0  0  0
  -21.8230   14.8840  -29.9120 C   0  0  0  0  0  0  0  0  0  0  0  0
  -22.9530   14.4950  -30.6130 C   0  0  0  0  0  0  0  0  0  0  0  0
  -23.4960   13.2360  -30.3500 C   0  0  0  0  0  0  0  0  0  0  0  0
  -19.0300   16.9020  -28.7420 N   0  0  0  0  0  0  0  0  0  0  0  0
  -18.2040   17.2570  -29.2240 H   0  0  0  0  0  0  0  0  0  0  0  0
  -19.4090   17.5070  -27.5510 C   0  0  0  0  0  0  0  0  0  0  0  0
  -20.3760   17.1850  -26.8670 O   0  0  0  0  0  0  0  0  0  0  0  0
  -18.4950   18.6220  -27.1710 C   0  0  0  0  0  0  0  0  0  0  0  0
  -19.0020   19.8150  -26.8270 C   0  0  0  0  0  0  0  0  0  0  0  0
  -18.1950   20.9810  -26.4270 C   0  0  0  0  0  0  0  0  0  0  0  0
  -16.8960   21.1400  -26.8820 C   0  0  0  0  0  0  0  0  0  0  0  0
  -16.1020   22.1850  -26.5540 N   0  0  0  0  0  0  0  0  0  0  0  0
  -16.6390   23.1130  -25.7300 C   0  0  0  0  0  0  0  0  0  0  0  0
  -17.9270   23.0440  -25.2210 C   0  0  0  0  0  0  0  0  0  0  0  0
  -18.7130   21.9560  -25.5810 C   0  0  0  0  0  0  0  0  0  0  0  0
  -21.7910   17.2380  -29.3190 N   0  0  0  0  0  0  0  0  0  0  0  0
  -21.4530   17.5340  -28.4050 H   0  0  0  0  0  0  0  0  0  0  0  0
  -22.9130   17.8730  -29.8430 C   0  0  0  0  0  0  0  0  0  0  0  0
  -23.4240   17.6170  -30.9300 O   0  0  0  0  0  0  0  0  0  0  0  0
  -23.4410   18.9290  -28.9050 C   0  0  0  0  0  0  0  0  0  0  0  0
  -23.2360   18.4980  -27.5150 N   0  0  0  0  0  0  0  0  0  0  0  0
  -23.5400   17.1980  -27.1870 N   0  0  0  0  0  0  0  0  0  0  0  0
  -23.8930   16.6000  -27.9280 H   0  0  0  0  0  0  0  0  0  0  0  0
  -23.3780   16.7090  -25.9160 C   0  0  0  0  0  0  0  0  0  0  0  0
  -23.6390   15.5530  -25.5900 O   0  0  0  0  0  0  0  0  0  0  0  0
  -22.8590   17.6570  -24.9130 C   0  0  0  0  0  0  0  0  0  0  0  0
  -22.5690   18.9160  -25.2430 C   0  0  0  0  0  0  0  0  0  0  0  0
  -22.7530   19.4140  -26.6230 C   0  0  0  0  0  0  0  0  0  0  0  0
  -22.4710   20.5840  -26.8760 O   0  0  0  0  0  0  0  0  0  0  0  0
  1  2  2  0  0  0  0
  3  2  1  0  0  0  0
  3  4  1  0  0  0  0
  5 10  1  1  0  0  0
  5  4  1  0  0  0  0
  6  7  1  0  0  0  0
  6  5  1  0  0  0  0
  6 22  1  1  0  0  0
  7  3  2  0  0  0  0
  8  9  2  0  0  0  0
  8  7  1  0  0  0  0
  9  1  1  0  0  0  0
 10 12  1  0  0  0  0
 11 10  1  0  0  0  0
 12 14  1  0  0  0  0
 12 13  2  0  0  0  0
 14 15  2  0  0  0  0
 15 16  1  0  0  0  0
 16 21  2  0  0  0  0
 17 18  2  0  0  0  0
 17 16  1  0  0  0  0
 18 19  1  0  0  0  0
 19 20  2  0  0  0  0
 21 20  1  0  0  0  0
 22 23  1  0  0  0  0
 24 22  1  0  0  0  0
 24 26  1  0  0  0  0
 25 24  2  0  0  0  0
 26 27  1  0  0  0  0
 27 28  1  0  0  0  0
 27 34  1  0  0  0  0
 28 30  1  0  0  0  0
 29 28  1  0  0  0  0
 30 31  2  0  0  0  0
 30 32  1  0  0  0  0
 33 32  2  0  0  0  0
 34 33  1  0  0  0  0
 35 34  2  0  0  0  0
M  END
>  <ADSCOR>
   -7.93

$$$$
77
 OpenBabel08042116023D

 39 42  0  0  1  0  0  0  0  0999 V2000
  -20.2920   18.7850  -28.9390 C   0  0  1  0  0  0  0  0  0  0  0  0
  -22.4610   12.7740  -30.2200 C   0  0  0  0  0  0  0  0  0  0  0  0
  -21.2380   13.2130  -29.7120 C   0  0  0  0  0  0  0  0  0  0  0  0
  -20.9930   14.5820  -29.5180 C   0  0  0  0  0  0  0  0  0  0  0  0
  -22.0030   15.5190  -29.8430 C   0  0  0  0  0  0  0  0  0  0  0  0
  -21.7580   16.8890  -29.6490 C   0  0  0  0  0  0  0  0  0  0  0  0
  -20.5360   17.3270  -29.1400 C   0  0  0  0  0  0  0  0  0  0  0  0
  -19.5420   16.4060  -28.8200 C   0  0  0  0  0  0  0  0  0  0  0  0
  -23.2280   15.0590  -30.3540 C   0  0  0  0  0  0  0  0  0  0  0  0
  -19.7680   15.0430  -29.0070 C   0  0  0  0  0  0  0  0  0  0  0  0
  -23.4530   13.6950  -30.5410 C   0  0  0  0  0  0  0  0  0  0  0  0
  -20.8260   19.5890  -30.0590 N   0  0  0  0  0  0  0  0  0  0  0  0
  -21.4870   19.1280  -30.6530 H   0  0  0  0  0  0  0  0  0  0  0  0
  -20.4560   20.8940  -30.2270 C   0  0  0  0  0  0  0  0  0  0  0  0
  -19.6830   21.5330  -29.5200 O   0  0  0  0  0  0  0  0  0  0  0  0
  -21.1300   21.4830  -31.4160 C   0  0  0  0  0  0  0  0  0  0  0  0
  -22.4530   21.3490  -31.5730 C   0  0  0  0  0  0  0  0  0  0  0  0
  -23.1680   21.8910  -32.6960 C   0  0  0  0  0  0  0  0  0  0  0  0
  -24.5490   21.4290  -32.9880 C   0  0  0  0  0  0  0  0  0  0  0  0
  -25.1260   20.5890  -32.3040 O   0  0  0  0  0  0  0  0  0  0  0  0
  -25.1100   22.0360  -34.0960 N   0  0  0  0  0  0  0  0  0  0  0  0
  -26.0540   21.7780  -34.3680 H   0  0  0  0  0  0  0  0  0  0  0  0
  -24.4310   22.9740  -34.8400 C   0  0  0  0  0  0  0  0  0  0  0  0
  -23.2300   23.3830  -34.5950 N   0  0  0  0  0  0  0  0  0  0  0  0
  -22.6220   22.8140  -33.5030 C   0  0  0  0  0  0  0  0  0  0  0  0
  -20.8550   19.3440  -27.6100 C   0  0  0  0  0  0  0  0  0  0  0  0
  -20.0330   20.4050  -27.0890 N   0  0  0  0  0  0  0  0  0  0  0  0
  -20.2650   21.3650  -27.3330 H   0  0  0  0  0  0  0  0  0  0  0  0
  -18.9400   20.1760  -26.2710 C   0  0  0  0  0  0  0  0  0  0  0  0
  -18.5300   19.0870  -25.8860 O   0  0  0  0  0  0  0  0  0  0  0  0
  -18.2570   21.4200  -25.8700 C   0  0  0  0  0  0  0  0  0  0  0  0
  -18.9940   22.4920  -25.2600 C   0  0  0  0  0  0  0  0  0  0  0  0
  -18.3510   23.6150  -24.9030 C   0  0  0  0  0  0  0  0  0  0  0  0
  -16.9930   23.7270  -25.1260 N   0  0  0  0  0  0  0  0  0  0  0  0
  -16.5340   24.5890  -24.8460 H   0  0  0  0  0  0  0  0  0  0  0  0
  -16.2170   22.7370  -25.7080 C   0  0  0  0  0  0  0  0  0  0  0  0
  -15.0080   22.8380  -25.9050 O   0  0  0  0  0  0  0  0  0  0  0  0
  -19.0240   24.7870  -24.2630 C   0  0  0  0  0  0  0  0  0  0  0  0
  -16.9420   21.4940  -26.1010 C   0  0  0  0  0  0  0  0  0  0  0  0
  1 26  1  1  0  0  0
  2  3  2  0  0  0  0
  3  4  1  0  0  0  0
  4 10  2  0  0  0  0
  5  6  2  0  0  0  0
  5  4  1  0  0  0  0
  6  7  1  0  0  0  0
  7  1  1  0  0  0  0
  7  8  2  0  0  0  0
  9  5  1  0  0  0  0
 10  8  1  0  0  0  0
 11  9  2  0  0  0  0
 11  2  1  0  0  0  0
 12  1  1  0  0  0  0
 13 12  1  0  0  0  0
 14 12  1  0  0  0  0
 14 15  2  0  0  0  0
 16 14  1  0  0  0  0
 17 16  2  0  0  0  0
 18 17  1  0  0  0  0
 19 18  1  0  0  0  0
 19 20  2  0  0  0  0
 21 19  1  0  0  0  0
 22 21  1  0  0  0  0
 23 24  2  0  0  0  0
 23 21  1  0  0  0  0
 24 25  1  0  0  0  0
 25 18  2  0  0  0  0
 26 27  1  0  0  0  0
 27 29  1  0  0  0  0
 28 27  1  0  0  0  0
 29 30  2  0  0  0  0
 29 31  1  0  0  0  0
 31 32  1  0  0  0  0
 32 33  2  0  0  0  0
 33 38  1  0  0  0  0
 34 33  1  0  0  0  0
 34 35  1  0  0  0  0
 36 34  1  0  0  0  0
 37 36  2  0  0  0  0
 39 31  2  0  0  0  0
 39 36  1  0  0  0  0
M  END
>  <ADSCOR>
   -9.80

$$$$
78
 OpenBabel08042116023D

 40 43  0  0  1  0  0  0  0  0999 V2000
  -20.9960   15.7390  -22.6150 C   0  0  1  0  0  0  0  0  0  0  0  0
  -25.1840   13.2410  -18.2920 C   0  0  0  0  0  0  0  0  0  0  0  0
  -23.8110   13.0530  -18.4440 C   0  0  0  0  0  0  0  0  0  0  0  0
  -23.1070   13.7080  -19.4670 C   0  0  0  0  0  0  0  0  0  0  0  0
  -23.8060   14.5670  -20.3480 C   0  0  0  0  0  0  0  0  0  0  0  0
  -23.1020   15.2230  -21.3710 C   0  0  0  0  0  0  0  0  0  0  0  0
  -21.7280   15.0340  -21.5230 C   0  0  0  0  0  0  0  0  0  0  0  0
  -21.0400   14.1890  -20.6570 C   0  0  0  0  0  0  0  0  0  0  0  0
  -25.1890   14.7450  -20.1790 C   0  0  0  0  0  0  0  0  0  0  0  0
  -21.7230   13.5300  -19.6350 C   0  0  0  0  0  0  0  0  0  0  0  0
  -25.8720   14.0850  -19.1580 C   0  0  0  0  0  0  0  0  0  0  0  0
  -21.0040   14.9600  -23.8710 N   0  0  0  0  0  0  0  0  0  0  0  0
  -21.8960   14.6150  -24.1660 H   0  0  0  0  0  0  0  0  0  0  0  0
  -19.8570   14.7740  -24.5910 C   0  0  0  0  0  0  0  0  0  0  0  0
  -18.7410   15.1970  -24.3120 O   0  0  0  0  0  0  0  0  0  0  0  0
  -20.1280   13.9650  -25.8120 C   0  0  0  0  0  0  0  0  0  0  0  0
  -21.1690   14.2640  -26.5980 C   0  0  0  0  0  0  0  0  0  0  0  0
  -21.4890   13.5260  -27.7890 C   0  0  0  0  0  0  0  0  0  0  0  0
  -20.4140   13.1610  -28.7470 C   0  0  0  0  0  0  0  0  0  0  0  0
  -19.2380   13.4630  -28.5690 O   0  0  0  0  0  0  0  0  0  0  0  0
  -20.8690   12.4540  -29.8440 N   0  0  0  0  0  0  0  0  0  0  0  0
  -20.1990   12.1640  -30.5500 H   0  0  0  0  0  0  0  0  0  0  0  0
  -22.1980   12.1330  -30.0080 C   0  0  0  0  0  0  0  0  0  0  0  0
  -23.1410   12.4460  -29.1830 N   0  0  0  0  0  0  0  0  0  0  0  0
  -22.7460   13.1500  -28.0710 C   0  0  0  0  0  0  0  0  0  0  0  0
  -21.5160   17.1670  -22.9090 C   0  0  0  0  0  0  0  0  0  0  0  0
  -20.4470   18.0550  -23.2850 N   0  0  0  0  0  0  0  0  0  0  0  0
  -19.5170   17.8630  -22.9180 H   0  0  0  0  0  0  0  0  0  0  0  0
  -20.6410   19.1220  -24.1510 C   0  0  0  0  0  0  0  0  0  0  0  0
  -21.7060   19.4210  -24.6790 O   0  0  0  0  0  0  0  0  0  0  0  0
  -19.3840   19.8850  -24.3870 C   0  0  0  0  0  0  0  0  0  0  0  0
  -19.3760   20.9170  -25.2410 C   0  0  0  0  0  0  0  0  0  0  0  0
  -18.2020   21.6950  -25.5160 C   0  0  0  0  0  0  0  0  0  0  0  0
  -17.9920   22.9920  -24.8210 C   0  0  0  0  0  0  0  0  0  0  0  0
  -18.7890   23.4420  -24.0040 O   0  0  0  0  0  0  0  0  0  0  0  0
  -16.8200   23.6300  -25.1860 N   0  0  0  0  0  0  0  0  0  0  0  0
  -16.5990   24.5240  -24.7580 H   0  0  0  0  0  0  0  0  0  0  0  0
  -15.9500   23.0920  -26.1070 C   0  0  0  0  0  0  0  0  0  0  0  0
  -16.1210   21.9670  -26.7170 N   0  0  0  0  0  0  0  0  0  0  0  0
  -17.2710   21.2880  -26.3930 C   0  0  0  0  0  0  0  0  0  0  0  0
  1 26  1  6  0  0  0
  1  7  1  0  0  0  0
  3  2  1  0  0  0  0
  4  3  2  0  0  0  0
  5  9  2  0  0  0  0
  5  4  1  0  0  0  0
  6  5  1  0  0  0  0
  7  6  2  0  0  0  0
  7  8  1  0  0  0  0
  8 10  2  0  0  0  0
  9 11  1  0  0  0  0
 10  4  1  0  0  0  0
 11  2  2  0  0  0  0
 12  1  1  0  0  0  0
 13 12  1  0  0  0  0
 14 15  2  0  0  0  0
 14 12  1  0  0  0  0
 16 14  1  0  0  0  0
 17 16  2  0  0  0  0
 18 17  1  0  0  0  0
 19 20  2  0  0  0  0
 19 18  1  0  0  0  0
 21 19  1  0  0  0  0
 22 21  1  0  0  0  0
 23 21  1  0  0  0  0
 23 24  2  0  0  0  0
 24 25  1  0  0  0  0
 25 18  2  0  0  0  0
 27 28  1  0  0  0  0
 27 26  1  0  0  0  0
 29 27  1  0  0  0  0
 30 29  2  0  0  0  0
 31 29  1  0  0  0  0
 32 31  2  0  0  0  0
 33 32  1  0  0  0  0
 33 34  1  0  0  0  0
 34 35  2  0  0  0  0
 36 34  1  0  0  0  0
 36 37  1  0  0  0  0
 38 36  1  0  0  0  0
 39 40  1  0  0  0  0
 39 38  2  0  0  0  0
 40 33  2  0  0  0  0
M  END
>  <ADSCOR>
   -9.21

$$$$
79
 OpenBabel08042116023D

 39 42  0  0  1  0  0  0  0  0999 V2000
  -20.8030   19.1870  -29.7340 C   0  0  1  0  0  0  0  0  0  0  0  0
  -21.1530   12.6950  -29.2860 C   0  0  0  0  0  0  0  0  0  0  0  0
  -21.8650   13.5940  -30.0800 C   0  0  0  0  0  0  0  0  0  0  0  0
  -21.6130   14.9730  -30.0030 C   0  0  0  0  0  0  0  0  0  0  0  0
  -20.6240   15.4470  -29.1090 C   0  0  0  0  0  0  0  0  0  0  0  0
  -20.3710   16.8270  -29.0320 C   0  0  0  0  0  0  0  0  0  0  0  0
  -21.0840   17.7250  -29.8270 C   0  0  0  0  0  0  0  0  0  0  0  0
  -22.0570   17.2590  -30.7070 C   0  0  0  0  0  0  0  0  0  0  0  0
  -19.9170   14.5280  -28.3170 C   0  0  0  0  0  0  0  0  0  0  0  0
  -22.3200   15.8930  -30.7960 C   0  0  0  0  0  0  0  0  0  0  0  0
  -20.1810   13.1610  -28.4060 C   0  0  0  0  0  0  0  0  0  0  0  0
  -21.8620   19.9910  -30.3810 N   0  0  0  0  0  0  0  0  0  0  0  0
  -22.5930   19.4740  -30.8270 H   0  0  0  0  0  0  0  0  0  0  0  0
  -21.8420   21.3570  -30.3220 C   0  0  0  0  0  0  0  0  0  0  0  0
  -21.0010   22.0540  -29.7640 O   0  0  0  0  0  0  0  0  0  0  0  0
  -23.0120   21.9310  -31.0420 C   0  0  0  0  0  0  0  0  0  0  0  0
  -23.2080   21.6490  -32.3360 C   0  0  0  0  0  0  0  0  0  0  0  0
  -24.3140   22.1680  -33.0930 C   0  0  0  0  0  0  0  0  0  0  0  0
  -24.0640   22.9350  -34.3410 C   0  0  0  0  0  0  0  0  0  0  0  0
  -22.9350   23.1510  -34.7710 O   0  0  0  0  0  0  0  0  0  0  0  0
  -25.2200   23.3710  -34.9600 N   0  0  0  0  0  0  0  0  0  0  0  0
  -25.1410   23.9040  -35.8220 H   0  0  0  0  0  0  0  0  0  0  0  0
  -26.4700   23.1080  -34.4470 C   0  0  0  0  0  0  0  0  0  0  0  0
  -26.6990   22.4440  -33.3630 N   0  0  0  0  0  0  0  0  0  0  0  0
  -25.5850   21.9830  -32.7040 C   0  0  0  0  0  0  0  0  0  0  0  0
  -20.5990   19.7020  -28.2880 C   0  0  0  0  0  0  0  0  0  0  0  0
  -19.3780   20.4550  -28.1600 N   0  0  0  0  0  0  0  0  0  0  0  0
  -19.2650   21.2930  -28.7250 H   0  0  0  0  0  0  0  0  0  0  0  0
  -18.3480   20.0930  -27.3020 C   0  0  0  0  0  0  0  0  0  0  0  0
  -18.3560   19.1070  -26.5660 O   0  0  0  0  0  0  0  0  0  0  0  0
  -17.1700   21.0460  -27.3530 C   0  0  0  0  0  0  0  0  0  0  0  0
  -17.3150   22.0630  -26.2770 C   0  0  0  0  0  0  0  0  0  0  0  0
  -16.1910   22.9330  -25.8350 C   0  0  0  0  0  0  0  0  0  0  0  0
  -16.6440   23.7410  -24.8210 O   0  0  0  0  0  0  0  0  0  0  0  0
  -17.9710   23.4160  -24.6580 N   0  0  0  0  0  0  0  0  0  0  0  0
  -18.5200   23.7800  -23.8940 H   0  0  0  0  0  0  0  0  0  0  0  0
  -15.0610   22.9250  -26.2920 O   0  0  0  0  0  0  0  0  0  0  0  0
  -18.3460   22.4220  -25.5040 C   0  0  0  0  0  0  0  0  0  0  0  0
  -19.7280   21.8800  -25.4710 C   0  0  0  0  0  0  0  0  0  0  0  0
  1 26  1  1  0  0  0
  2 11  2  0  0  0  0
  3  4  2  0  0  0  0
  3  2  1  0  0  0  0
  4  5  1  0  0  0  0
  5  6  1  0  0  0  0
  5  9  2  0  0  0  0
  7  1  1  0  0  0  0
  7  6  2  0  0  0  0
  8  7  1  0  0  0  0
 10  8  2  0  0  0  0
 10  4  1  0  0  0  0
 11  9  1  0  0  0  0
 12 14  1  0  0  0  0
 12  1  1  0  0  0  0
 13 12  1  0  0  0  0
 14 15  2  0  0  0  0
 16 14  1  0  0  0  0
 17 16  2  0  0  0  0
 18 25  2  0  0  0  0
 18 17  1  0  0  0  0
 19 18  1  0  0  0  0
 20 19  2  0  0  0  0
 21 23  1  0  0  0  0
 21 19  1  0  0  0  0
 22 21  1  0  0  0  0
 23 24  2  0  0  0  0
 24 25  1  0  0  0  0
 26 27  1  0  0  0  0
 27 29  1  0  0  0  0
 28 27  1  0  0  0  0
 29 30  2  0  0  0  0
 31 29  1  0  0  0  0
 31 32  1  0  0  0  0
 32 33  1  0  0  0  0
 32 38  2  0  0  0  0
 33 34  1  0  0  0  0
 34 35  1  0  0  0  0
 35 36  1  0  0  0  0
 37 33  2  0  0  0  0
 38 39  1  0  0  0  0
 38 35  1  0  0  0  0
M  END
>  <ADSCOR>
   -8.96

$$$$
8
 OpenBabel08042116023D

 39 42  0  0  1  0  0  0  0  0999 V2000
  -24.5580   16.8320  -32.8020 C   0  0  0  0  0  0  0  0  0  0  0  0
  -24.7090   15.7830  -31.8940 C   0  0  0  0  0  0  0  0  0  0  0  0
  -23.6110   15.4080  -31.1350 C   0  0  0  0  0  0  0  0  0  0  0  0
  -23.5300   14.2930  -30.1390 C   0  0  0  0  0  0  0  0  0  0  0  0
  -22.2380   14.6460  -29.3760 C   0  0  1  0  0  0  0  0  0  0  0  0
  -21.3460   15.4220  -30.3810 C   0  0  1  0  0  0  0  0  0  0  0  0
  -22.3760   16.0530  -31.2750 C   0  0  0  0  0  0  0  0  0  0  0  0
  -22.2170   17.0840  -32.1890 C   0  0  0  0  0  0  0  0  0  0  0  0
  -23.3210   17.4780  -32.9490 C   0  0  0  0  0  0  0  0  0  0  0  0
  -22.5480   15.4190  -28.1900 N   0  0  0  0  0  0  0  0  0  0  0  0
  -22.2640   16.3960  -28.1620 H   0  0  0  0  0  0  0  0  0  0  0  0
  -23.2150   14.8920  -27.0890 C   0  0  0  0  0  0  0  0  0  0  0  0
  -23.6100   13.7320  -26.9960 O   0  0  0  0  0  0  0  0  0  0  0  0
  -23.4150   15.9030  -25.9760 C   0  0  0  0  0  0  0  0  0  0  0  0
  -22.0880   16.4000  -25.5220 C   0  0  0  0  0  0  0  0  0  0  0  0
  -21.9060   17.7620  -25.4850 N   0  0  0  0  0  0  0  0  0  0  0  0
  -22.6810   18.3560  -25.7660 H   0  0  0  0  0  0  0  0  0  0  0  0
  -20.7270   18.3710  -25.0830 C   0  0  0  0  0  0  0  0  0  0  0  0
  -20.5820   19.5940  -25.0560 O   0  0  0  0  0  0  0  0  0  0  0  0
  -19.7130   17.4850  -24.7140 N   0  0  0  0  0  0  0  0  0  0  0  0
  -18.8320   17.8900  -24.4140 H   0  0  0  0  0  0  0  0  0  0  0  0
  -19.8010   16.1010  -24.7180 C   0  0  0  0  0  0  0  0  0  0  0  0
  -18.8900   15.3480  -24.3870 O   0  0  0  0  0  0  0  0  0  0  0  0
  -21.1070   15.5600  -25.1640 C   0  0  0  0  0  0  0  0  0  0  0  0
  -20.4500   16.3570  -29.7580 N   0  0  0  0  0  0  0  0  0  0  0  0
  -19.4770   16.0820  -29.6460 H   0  0  0  0  0  0  0  0  0  0  0  0
  -20.8620   17.6180  -29.3500 C   0  0  0  0  0  0  0  0  0  0  0  0
  -21.9970   18.0660  -29.4690 O   0  0  0  0  0  0  0  0  0  0  0  0
  -19.7500   18.3980  -28.7400 C   0  0  0  0  0  0  0  0  0  0  0  0
  -19.9030   19.7060  -28.4960 C   0  0  0  0  0  0  0  0  0  0  0  0
  -18.8740   20.5180  -27.9090 C   0  0  0  0  0  0  0  0  0  0  0  0
  -18.7710   21.9560  -28.2670 C   0  0  0  0  0  0  0  0  0  0  0  0
  -19.5370   22.4980  -29.0560 O   0  0  0  0  0  0  0  0  0  0  0  0
  -17.7340   22.6110  -27.6270 N   0  0  0  0  0  0  0  0  0  0  0  0
  -17.6030   23.5990  -27.8240 H   0  0  0  0  0  0  0  0  0  0  0  0
  -16.8870   21.9730  -26.7440 C   0  0  0  0  0  0  0  0  0  0  0  0
  -16.9740   20.7180  -26.4300 N   0  0  0  0  0  0  0  0  0  0  0  0
  -15.8150   22.8320  -26.1390 C   0  0  0  0  0  0  0  0  0  0  0  0
  -17.9870   20.0170  -27.0370 C   0  0  0  0  0  0  0  0  0  0  0  0
  1  2  1  0  0  0  0
  2  3  2  0  0  0  0
  3  4  1  0  0  0  0
  4  5  1  0  0  0  0
  5 10  1  1  0  0  0
  6 25  1  1  0  0  0
  6  5  1  0  0  0  0
  7  3  1  0  0  0  0
  7  6  1  0  0  0  0
  8  7  2  0  0  0  0
  9  1  2  0  0  0  0
  9  8  1  0  0  0  0
 10 11  1  0  0  0  0
 10 12  1  0  0  0  0
 12 13  2  0  0  0  0
 12 14  1  0  0  0  0
 14 15  1  0  0  0  0
 15 16  1  0  0  0  0
 15 24  2  0  0  0  0
 16 18  1  0  0  0  0
 17 16  1  0  0  0  0
 18 19  2  0  0  0  0
 18 20  1  0  0  0  0
 20 21  1  0  0  0  0
 22 20  1  0  0  0  0
 22 23  2  0  0  0  0
 24 22  1  0  0  0  0
 25 26  1  0  0  0  0
 25 27  1  0  0  0  0
 27 29  1  0  0  0  0
 28 27  2  0  0  0  0
 29 30  2  0  0  0  0
 30 31  1  0  0  0  0
 31 39  2  0  0  0  0
 32 31  1  0  0  0  0
 32 34  1  0  0  0  0
 33 32  2  0  0  0  0
 34 36  1  0  0  0  0
 35 34  1  0  0  0  0
 36 37  2  0  0  0  0
 36 38  1  0  0  0  0
 39 37  1  0  0  0  0
M  END
>  <ADSCOR>
   -8.69

$$$$
80
 OpenBabel08042116023D

 37 40  0  0  1  0  0  0  0  0999 V2000
  -23.1350   14.0790  -30.7660 C   0  0  0  0  0  0  0  0  0  0  0  0
  -22.2850   13.2200  -30.0670 C   0  0  0  0  0  0  0  0  0  0  0  0
  -21.1830   13.7630  -29.4260 C   0  0  0  0  0  0  0  0  0  0  0  0
  -20.1230   13.0330  -28.6600 C   0  0  0  0  0  0  0  0  0  0  0  0
  -19.4500   14.1820  -27.8830 C   0  0  1  0  0  0  0  0  0  0  0  0
  -19.6400   15.4540  -28.7500 C   0  0  1  0  0  0  0  0  0  0  0  0
  -20.9160   15.1370  -29.4780 C   0  0  0  0  0  0  0  0  0  0  0  0
  -21.7470   15.9920  -30.1860 C   0  0  0  0  0  0  0  0  0  0  0  0
  -22.8670   15.4560  -30.8250 C   0  0  0  0  0  0  0  0  0  0  0  0
  -20.0360   14.3100  -26.5640 N   0  0  0  0  0  0  0  0  0  0  0  0
  -19.4630   14.0700  -25.7560 H   0  0  0  0  0  0  0  0  0  0  0  0
  -21.3390   14.7450  -26.3410 C   0  0  0  0  0  0  0  0  0  0  0  0
  -22.1350   15.0650  -27.2210 O   0  0  0  0  0  0  0  0  0  0  0  0
  -21.6720   14.7750  -24.8710 C   0  0  0  0  0  0  0  0  0  0  0  0
  -21.3550   16.1010  -24.3210 N   0  0  0  0  0  0  0  0  0  0  0  0
  -20.0810   16.6470  -24.4980 C   0  0  0  0  0  0  0  0  0  0  0  0
  -19.1540   16.0990  -25.1000 O   0  0  0  0  0  0  0  0  0  0  0  0
  -19.9190   17.9140  -23.9220 N   0  0  0  0  0  0  0  0  0  0  0  0
  -19.0060   18.3480  -24.0280 H   0  0  0  0  0  0  0  0  0  0  0  0
  -20.8740   18.6360  -23.2240 C   0  0  0  0  0  0  0  0  0  0  0  0
  -20.6870   19.7470  -22.7350 O   0  0  0  0  0  0  0  0  0  0  0  0
  -22.1840   17.9650  -23.0980 C   0  0  0  0  0  0  0  0  0  0  0  0
  -22.3520   16.7580  -23.6420 C   0  0  0  0  0  0  0  0  0  0  0  0
  -19.6810   16.6730  -27.9890 N   0  0  0  0  0  0  0  0  0  0  0  0
  -20.0470   16.6290  -27.0400 H   0  0  0  0  0  0  0  0  0  0  0  0
  -19.2080   17.8760  -28.4910 C   0  0  0  0  0  0  0  0  0  0  0  0
  -18.7160   18.0360  -29.6030 O   0  0  0  0  0  0  0  0  0  0  0  0
  -19.3570   18.9880  -27.5120 C   0  0  0  0  0  0  0  0  0  0  0  0
  -18.2860   19.6980  -27.1350 C   0  0  0  0  0  0  0  0  0  0  0  0
  -18.3580   20.7830  -26.1960 C   0  0  0  0  0  0  0  0  0  0  0  0
  -17.2910   21.8170  -26.1760 C   0  0  0  0  0  0  0  0  0  0  0  0
  -16.3310   21.7930  -26.9400 O   0  0  0  0  0  0  0  0  0  0  0  0
  -17.4910   22.7960  -25.2210 N   0  0  0  0  0  0  0  0  0  0  0  0
  -16.8090   23.5450  -25.1400 H   0  0  0  0  0  0  0  0  0  0  0  0
  -18.5810   22.7890  -24.3810 C   0  0  0  0  0  0  0  0  0  0  0  0
  -19.5150   21.8950  -24.3890 N   0  0  0  0  0  0  0  0  0  0  0  0
  -19.3670   20.8960  -25.3200 C   0  0  0  0  0  0  0  0  0  0  0  0
  1  2  1  0  0  0  0
  2  3  2  0  0  0  0
  3  4  1  0  0  0  0
  4  5  1  0  0  0  0
  5 10  1  1  0  0  0
  6 24  1  1  0  0  0
  6  5  1  0  0  0  0
  7  3  1  0  0  0  0
  7  6  1  0  0  0  0
  8  7  2  0  0  0  0
  9  1  2  0  0  0  0
  9  8  1  0  0  0  0
 10 12  1  0  0  0  0
 10 11  1  0  0  0  0
 12 14  1  0  0  0  0
 13 12  2  0  0  0  0
 14 15  1  0  0  0  0
 15 23  1  0  0  0  0
 16 15  1  0  0  0  0
 16 18  1  0  0  0  0
 17 16  2  0  0  0  0
 18 20  1  0  0  0  0
 19 18  1  0  0  0  0
 20 22  1  0  0  0  0
 20 21  2  0  0  0  0
 23 22  2  0  0  0  0
 24 25  1  0  0  0  0
 26 24  1  0  0  0  0
 26 28  1  0  0  0  0
 27 26  2  0  0  0  0
 28 29  2  0  0  0  0
 29 30  1  0  0  0  0
 30 31  1  0  0  0  0
 30 37  2  0  0  0  0
 31 33  1  0  0  0  0
 32 31  2  0  0  0  0
 33 34  1  0  0  0  0
 33 35  1  0  0  0  0
 36 35  2  0  0  0  0
 37 36  1  0  0  0  0
M  END
>  <ADSCOR>
   -7.96

$$$$
81
 OpenBabel08042116023D

 35 38  0  0  1  0  0  0  0  0999 V2000
  -24.2330   14.7200  -19.7210 C   0  0  0  0  0  0  0  0  0  0  0  0
  -23.9920   15.9160  -20.3990 C   0  0  0  0  0  0  0  0  0  0  0  0
  -22.7870   16.0610  -21.0650 C   0  0  0  0  0  0  0  0  0  0  0  0
  -22.3240   17.2270  -21.8830 C   0  0  0  0  0  0  0  0  0  0  0  0
  -20.8110   16.9480  -21.9600 C   0  0  1  0  0  0  0  0  0  0  0  0
  -20.6390   15.4100  -21.8960 C   0  0  1  0  0  0  0  0  0  0  0  0
  -21.8370   15.0300  -21.0770 C   0  0  0  0  0  0  0  0  0  0  0  0
  -22.0740   13.8380  -20.4120 C   0  0  0  0  0  0  0  0  0  0  0  0
  -23.2810   13.6880  -19.7260 C   0  0  0  0  0  0  0  0  0  0  0  0
  -20.1950   17.5700  -23.1000 N   0  0  0  0  0  0  0  0  0  0  0  0
  -19.4940   17.0420  -23.6180 H   0  0  0  0  0  0  0  0  0  0  0  0
  -20.5060   18.8530  -23.5320 C   0  0  0  0  0  0  0  0  0  0  0  0
  -21.3260   19.6000  -23.0060 O   0  0  0  0  0  0  0  0  0  0  0  0
  -19.7190   19.2470  -24.7340 C   0  0  0  0  0  0  0  0  0  0  0  0
  -19.3980   20.5340  -24.9310 C   0  0  0  0  0  0  0  0  0  0  0  0
  -18.6180   21.0350  -26.0770 C   0  0  0  0  0  0  0  0  0  0  0  0
  -17.2690   21.3240  -25.9520 C   0  0  0  0  0  0  0  0  0  0  0  0
  -16.4970   21.7870  -26.9620 N   0  0  0  0  0  0  0  0  0  0  0  0
  -17.1100   21.9650  -28.1530 C   0  0  0  0  0  0  0  0  0  0  0  0
  -18.4520   21.7060  -28.3810 C   0  0  0  0  0  0  0  0  0  0  0  0
  -19.2140   21.2310  -27.3180 C   0  0  0  0  0  0  0  0  0  0  0  0
  -20.6610   14.7690  -23.1850 N   0  0  0  0  0  0  0  0  0  0  0  0
  -21.5320   14.3370  -23.4860 H   0  0  0  0  0  0  0  0  0  0  0  0
  -19.5590   14.7610  -24.0270 C   0  0  0  0  0  0  0  0  0  0  0  0
  -18.4750   15.2810  -23.7820 O   0  0  0  0  0  0  0  0  0  0  0  0
  -19.8350   14.0400  -25.3000 C   0  0  0  0  0  0  0  0  0  0  0  0
  -20.5870   14.6130  -26.2480 C   0  0  0  0  0  0  0  0  0  0  0  0
  -20.8940   13.9750  -27.4980 C   0  0  0  0  0  0  0  0  0  0  0  0
  -22.2900   13.5610  -27.7970 C   0  0  0  0  0  0  0  0  0  0  0  0
  -23.2170   13.7430  -27.0140 O   0  0  0  0  0  0  0  0  0  0  0  0
  -22.4320   12.9600  -29.0330 N   0  0  0  0  0  0  0  0  0  0  0  0
  -23.3550   12.6470  -29.3190 H   0  0  0  0  0  0  0  0  0  0  0  0
  -21.3680   12.7730  -29.8850 C   0  0  0  0  0  0  0  0  0  0  0  0
  -20.1510   13.1280  -29.6360 N   0  0  0  0  0  0  0  0  0  0  0  0
  -19.9490   13.7330  -28.4190 C   0  0  0  0  0  0  0  0  0  0  0  0
  2  1  2  0  0  0  0
  3  2  1  0  0  0  0
  4  3  1  0  0  0  0
  5 10  1  6  0  0  0
  5  6  1  0  0  0  0
  5  4  1  0  0  0  0
  6 22  1  6  0  0  0
  6  7  1  0  0  0  0
  7  3  2  0  0  0  0
  7  8  1  0  0  0  0
  8  9  2  0  0  0  0
  9  1  1  0  0  0  0
 11 10  1  0  0  0  0
 12 10  1  0  0  0  0
 12 13  2  0  0  0  0
 14 12  1  0  0  0  0
 15 14  2  0  0  0  0
 16 17  1  0  0  0  0
 16 15  1  0  0  0  0
 18 17  2  0  0  0  0
 19 18  1  0  0  0  0
 20 19  2  0  0  0  0
 20 21  1  0  0  0  0
 21 16  2  0  0  0  0
 23 22  1  0  0  0  0
 24 25  2  0  0  0  0
 24 22  1  0  0  0  0
 26 24  1  0  0  0  0
 27 26  2  0  0  0  0
 28 27  1  0  0  0  0
 29 28  1  0  0  0  0
 29 30  2  0  0  0  0
 31 29  1  0  0  0  0
 32 31  1  0  0  0  0
 33 34  2  0  0  0  0
 33 31  1  0  0  0  0
 34 35  1  0  0  0  0
 35 28  2  0  0  0  0
M  END
>  <ADSCOR>
   -8.45

$$$$
82
 OpenBabel08042116023D

 38 41  0  0  1  0  0  0  0  0999 V2000
  -19.8960   18.9550  -26.8460 C   0  0  1  0  0  0  0  0  0  0  0  0
  -17.4050   22.1440  -28.3230 C   0  0  0  0  0  0  0  0  0  0  0  0
  -18.7490   22.0810  -28.6910 C   0  0  0  0  0  0  0  0  0  0  0  0
  -19.5550   21.0490  -28.2130 C   0  0  0  0  0  0  0  0  0  0  0  0
  -19.0180   20.0790  -27.3660 C   0  0  0  0  0  0  0  0  0  0  0  0
  -17.6730   20.1420  -26.9980 C   0  0  0  0  0  0  0  0  0  0  0  0
  -16.8660   21.1740  -27.4770 C   0  0  0  0  0  0  0  0  0  0  0  0
  -20.6480   18.3520  -27.9230 N   0  0  0  0  0  0  0  0  0  0  0  0
  -21.6600   18.3110  -27.8440 H   0  0  0  0  0  0  0  0  0  0  0  0
  -20.0540   17.8280  -29.0570 C   0  0  0  0  0  0  0  0  0  0  0  0
  -18.8490   17.8020  -29.2990 O   0  0  0  0  0  0  0  0  0  0  0  0
  -21.0260   17.2700  -30.0040 C   0  0  0  0  0  0  0  0  0  0  0  0
  -21.4540   15.8650  -30.0220 C   0  0  0  0  0  0  0  0  0  0  0  0
  -22.4440   15.4510  -31.0430 C   0  0  0  0  0  0  0  0  0  0  0  0
  -22.8720   14.1790  -31.1070 C   0  0  0  0  0  0  0  0  0  0  0  0
  -22.3550   13.1630  -30.1500 C   0  0  0  0  0  0  0  0  0  0  0  0
  -22.7450   11.9990  -30.2080 O   0  0  0  0  0  0  0  0  0  0  0  0
  -21.4350   13.6270  -29.2310 N   0  0  0  0  0  0  0  0  0  0  0  0
  -21.0490   12.9750  -28.5550 H   0  0  0  0  0  0  0  0  0  0  0  0
  -22.9490   16.4540  -31.9780 C   0  0  0  0  0  0  0  0  0  0  0  0
  -22.5110   17.7220  -31.9000 C   0  0  0  0  0  0  0  0  0  0  0  0
  -21.0020   14.9280  -29.1700 C   0  0  0  0  0  0  0  0  0  0  0  0
  -21.5370   18.1370  -30.9020 C   0  0  0  0  0  0  0  0  0  0  0  0
  -19.1120   17.8740  -26.0850 C   0  0  0  0  0  0  0  0  0  0  0  0
  -19.5070   17.7900  -24.7040 N   0  0  0  0  0  0  0  0  0  0  0  0
  -18.7790   17.7960  -23.9910 H   0  0  0  0  0  0  0  0  0  0  0  0
  -20.8320   17.6980  -24.2900 C   0  0  0  0  0  0  0  0  0  0  0  0
  -21.8050   17.6790  -25.0390 O   0  0  0  0  0  0  0  0  0  0  0  0
  -20.9390   17.6190  -22.7880 C   0  0  0  0  0  0  0  0  0  0  0  0
  -20.9280   16.2110  -22.3670 N   0  0  0  0  0  0  0  0  0  0  0  0
  -19.7120   15.6250  -22.0990 N   0  0  0  0  0  0  0  0  0  0  0  0
  -18.8830   16.2000  -22.2090 H   0  0  0  0  0  0  0  0  0  0  0  0
  -19.6060   14.3180  -21.6980 C   0  0  0  0  0  0  0  0  0  0  0  0
  -18.5370   13.7650  -21.4500 O   0  0  0  0  0  0  0  0  0  0  0  0
  -20.8700   13.5700  -21.5700 C   0  0  0  0  0  0  0  0  0  0  0  0
  -22.0410   14.1480  -21.8330 C   0  0  0  0  0  0  0  0  0  0  0  0
  -22.1250   15.5610  -22.2630 C   0  0  0  0  0  0  0  0  0  0  0  0
  -23.2300   16.0480  -22.4940 O   0  0  0  0  0  0  0  0  0  0  0  0
  1 24  1  6  0  0  0
  2  7  1  0  0  0  0
  3  2  2  0  0  0  0
  3  4  1  0  0  0  0
  4  5  2  0  0  0  0
  5  6  1  0  0  0  0
  5  1  1  0  0  0  0
  7  6  2  0  0  0  0
  8  9  1  0  0  0  0
  8  1  1  0  0  0  0
 10  8  1  0  0  0  0
 11 10  2  0  0  0  0
 12 10  1  0  0  0  0
 13 12  1  0  0  0  0
 13 22  1  0  0  0  0
 14 13  2  0  0  0  0
 15 14  1  0  0  0  0
 15 16  1  0  0  0  0
 16 18  1  0  0  0  0
 17 16  2  0  0  0  0
 18 22  1  0  0  0  0
 18 19  1  0  0  0  0
 20 21  2  0  0  0  0
 20 14  1  0  0  0  0
 21 23  1  0  0  0  0
 23 12  2  0  0  0  0
 24 25  1  0  0  0  0
 25 27  1  0  0  0  0
 25 26  1  0  0  0  0
 27 29  1  0  0  0  0
 28 27  2  0  0  0  0
 29 30  1  0  0  0  0
 30 37  1  0  0  0  0
 30 31  1  0  0  0  0
 31 33  1  0  0  0  0
 32 31  1  0  0  0  0
 33 35  1  0  0  0  0
 33 34  2  0  0  0  0
 36 35  2  0  0  0  0
 37 36  1  0  0  0  0
 38 37  2  0  0  0  0
M  END
>  <ADSCOR>
   -9.70

$$$$
83
 OpenBabel08042116023D

 38 41  0  0  1  0  0  0  0  0999 V2000
  -22.0210   12.2550  -29.4320 C   0  0  0  0  0  0  0  0  0  0  0  0
  -22.0510   13.0390  -30.5870 C   0  0  0  0  0  0  0  0  0  0  0  0
  -22.3770   14.3790  -30.4640 C   0  0  0  0  0  0  0  0  0  0  0  0
  -22.4380   15.4140  -31.5450 C   0  0  0  0  0  0  0  0  0  0  0  0
  -23.2510   16.5190  -30.8450 C   0  0  1  0  0  0  0  0  0  0  0  0
  -22.9390   16.4110  -29.3330 C   0  0  1  0  0  0  0  0  0  0  0  0
  -22.6550   14.9430  -29.2110 C   0  0  0  0  0  0  0  0  0  0  0  0
  -22.6200   14.1730  -28.0600 C   0  0  0  0  0  0  0  0  0  0  0  0
  -22.3040   12.8180  -28.1780 C   0  0  0  0  0  0  0  0  0  0  0  0
  -23.0130   17.8180  -31.4130 N   0  0  0  0  0  0  0  0  0  0  0  0
  -23.8180   18.3560  -31.7320 H   0  0  0  0  0  0  0  0  0  0  0  0
  -21.7420   18.3690  -31.4990 C   0  0  0  0  0  0  0  0  0  0  0  0
  -20.7100   17.8310  -31.1150 O   0  0  0  0  0  0  0  0  0  0  0  0
  -21.7590   19.7230  -32.1200 C   0  0  0  0  0  0  0  0  0  0  0  0
  -22.0570   20.7970  -31.3780 C   0  0  0  0  0  0  0  0  0  0  0  0
  -22.0930   22.1300  -31.9120 C   0  0  0  0  0  0  0  0  0  0  0  0
  -22.0410   22.3420  -33.3830 C   0  0  0  0  0  0  0  0  0  0  0  0
  -21.9700   21.4140  -34.1830 O   0  0  0  0  0  0  0  0  0  0  0  0
  -22.0820   23.6740  -33.7500 N   0  0  0  0  0  0  0  0  0  0  0  0
  -22.0530   23.9080  -34.7380 H   0  0  0  0  0  0  0  0  0  0  0  0
  -22.1620   24.6870  -32.8220 C   0  0  0  0  0  0  0  0  0  0  0  0
  -22.2070   24.5160  -31.5420 N   0  0  0  0  0  0  0  0  0  0  0  0
  -22.1700   23.2090  -31.1190 C   0  0  0  0  0  0  0  0  0  0  0  0
  -21.8100   17.2000  -28.9150 N   0  0  0  0  0  0  0  0  0  0  0  0
  -20.8800   16.8720  -29.1680 H   0  0  0  0  0  0  0  0  0  0  0  0
  -21.9550   18.3940  -28.2240 C   0  0  0  0  0  0  0  0  0  0  0  0
  -23.0240   18.9000  -27.8990 O   0  0  0  0  0  0  0  0  0  0  0  0
  -20.6410   19.0210  -27.9100 C   0  0  0  0  0  0  0  0  0  0  0  0
  -20.5810   20.3100  -27.5520 C   0  0  0  0  0  0  0  0  0  0  0  0
  -19.3490   20.9790  -27.2370 C   0  0  0  0  0  0  0  0  0  0  0  0
  -18.8080   22.0100  -28.1580 C   0  0  0  0  0  0  0  0  0  0  0  0
  -19.3730   22.3280  -29.2000 O   0  0  0  0  0  0  0  0  0  0  0  0
  -17.6190   22.5670  -27.7260 N   0  0  0  0  0  0  0  0  0  0  0  0
  -17.1900   23.2810  -28.3080 H   0  0  0  0  0  0  0  0  0  0  0  0
  -17.0060   22.1880  -26.5490 C   0  0  0  0  0  0  0  0  0  0  0  0
  -17.4760   21.2870  -25.7430 N   0  0  0  0  0  0  0  0  0  0  0  0
  -15.7190   22.8930  -26.2310 C   0  0  0  0  0  0  0  0  0  0  0  0
  -18.6580   20.7000  -26.1230 C   0  0  0  0  0  0  0  0  0  0  0  0
  1  9  2  0  0  0  0
  2  3  2  0  0  0  0
  2  1  1  0  0  0  0
  3  7  1  0  0  0  0
  4  5  1  0  0  0  0
  4  3  1  0  0  0  0
  5 10  1  6  0  0  0
  5  6  1  0  0  0  0
  6  7  1  0  0  0  0
  6 24  1  6  0  0  0
  7  8  2  0  0  0  0
  9  8  1  0  0  0  0
 11 10  1  0  0  0  0
 12 10  1  0  0  0  0
 12 13  2  0  0  0  0
 14 12  1  0  0  0  0
 14 15  2  0  0  0  0
 16 15  1  0  0  0  0
 16 23  2  0  0  0  0
 17 16  1  0  0  0  0
 18 17  2  0  0  0  0
 19 17  1  0  0  0  0
 19 21  1  0  0  0  0
 20 19  1  0  0  0  0
 21 22  2  0  0  0  0
 22 23  1  0  0  0  0
 24 26  1  0  0  0  0
 25 24  1  0  0  0  0
 26 28  1  0  0  0  0
 26 27  2  0  0  0  0
 28 29  2  0  0  0  0
 29 30  1  0  0  0  0
 30 38  2  0  0  0  0
 31 33  1  0  0  0  0
 31 30  1  0  0  0  0
 32 31  2  0  0  0  0
 33 35  1  0  0  0  0
 34 33  1  0  0  0  0
 35 37  1  0  0  0  0
 35 36  2  0  0  0  0
 38 36  1  0  0  0  0
M  END
>  <ADSCOR>
   -8.25

$$$$
84
 OpenBabel08042116023D

 37 40  0  0  1  0  0  0  0  0999 V2000
  -21.8140   12.6010  -29.2430 C   0  0  0  0  0  0  0  0  0  0  0  0
  -20.8630   13.6060  -29.4270 C   0  0  0  0  0  0  0  0  0  0  0  0
  -20.9220   14.7230  -28.6100 C   0  0  0  0  0  0  0  0  0  0  0  0
  -19.9970   15.9020  -28.5970 C   0  0  0  0  0  0  0  0  0  0  0  0
  -20.8390   16.9240  -27.8110 C   0  0  1  0  0  0  0  0  0  0  0  0
  -21.7290   16.1130  -26.8370 C   0  0  1  0  0  0  0  0  0  0  0  0
  -21.8980   14.8380  -27.6110 C   0  0  0  0  0  0  0  0  0  0  0  0
  -22.8400   13.8410  -27.4190 C   0  0  0  0  0  0  0  0  0  0  0  0
  -22.7960   12.7170  -28.2460 C   0  0  0  0  0  0  0  0  0  0  0  0
  -20.0310   17.9320  -27.1810 N   0  0  0  0  0  0  0  0  0  0  0  0
  -19.1190   18.1360  -27.5870 H   0  0  0  0  0  0  0  0  0  0  0  0
  -20.4680   18.6530  -26.0780 C   0  0  0  0  0  0  0  0  0  0  0  0
  -21.5570   18.5190  -25.5320 O   0  0  0  0  0  0  0  0  0  0  0  0
  -19.4520   19.6390  -25.6150 C   0  0  0  0  0  0  0  0  0  0  0  0
  -18.8960   20.4890  -26.4870 C   0  0  0  0  0  0  0  0  0  0  0  0
  -17.9110   21.4640  -26.1090 C   0  0  0  0  0  0  0  0  0  0  0  0
  -18.2970   22.6150  -25.2530 C   0  0  0  0  0  0  0  0  0  0  0  0
  -19.4410   22.7790  -24.8390 O   0  0  0  0  0  0  0  0  0  0  0  0
  -17.2460   23.4700  -24.9720 N   0  0  0  0  0  0  0  0  0  0  0  0
  -17.4230   24.2840  -24.3920 H   0  0  0  0  0  0  0  0  0  0  0  0
  -15.9770   23.2520  -25.4550 C   0  0  0  0  0  0  0  0  0  0  0  0
  -15.6290   22.2560  -26.2000 N   0  0  0  0  0  0  0  0  0  0  0  0
  -16.6340   21.3720  -26.5120 C   0  0  0  0  0  0  0  0  0  0  0  0
  -21.1180   15.8700  -25.5570 N   0  0  0  0  0  0  0  0  0  0  0  0
  -21.2430   16.5630  -24.8220 H   0  0  0  0  0  0  0  0  0  0  0  0
  -20.3670   14.7370  -25.2740 C   0  0  0  0  0  0  0  0  0  0  0  0
  -20.1400   13.8260  -26.0680 O   0  0  0  0  0  0  0  0  0  0  0  0
  -19.8290   14.7190  -23.8560 C   0  0  0  0  0  0  0  0  0  0  0  0
  -20.9680   14.6830  -22.9000 C   0  0  0  0  0  0  0  0  0  0  0  0
  -21.2540   13.4060  -22.1860 C   0  0  0  0  0  0  0  0  0  0  0  0
  -20.5780   12.3970  -22.3660 O   0  0  0  0  0  0  0  0  0  0  0  0
  -22.3310   13.4770  -21.3220 N   0  0  0  0  0  0  0  0  0  0  0  0
  -22.5900   12.6480  -20.7960 H   0  0  0  0  0  0  0  0  0  0  0  0
  -23.0650   14.6300  -21.1460 C   0  0  0  0  0  0  0  0  0  0  0  0
  -22.8240   15.7450  -21.7630 N   0  0  0  0  0  0  0  0  0  0  0  0
  -24.2010   14.5360  -20.1690 C   0  0  0  0  0  0  0  0  0  0  0  0
  -21.7650   15.7300  -22.6340 C   0  0  0  0  0  0  0  0  0  0  0  0
  1  9  1  0  0  0  0
  2  1  2  0  0  0  0
  2  3  1  0  0  0  0
  3  4  1  0  0  0  0
  3  7  2  0  0  0  0
  4  5  1  0  0  0  0
  5 10  1  1  0  0  0
  5  6  1  0  0  0  0
  6 24  1  1  0  0  0
  7  8  1  0  0  0  0
  7  6  1  0  0  0  0
  9  8  2  0  0  0  0
 10 12  1  0  0  0  0
 11 10  1  0  0  0  0
 12 14  1  0  0  0  0
 12 13  2  0  0  0  0
 15 16  1  0  0  0  0
 15 14  2  0  0  0  0
 16 17  1  0  0  0  0
 17 19  1  0  0  0  0
 17 18  2  0  0  0  0
 19 20  1  0  0  0  0
 21 19  1  0  0  0  0
 22 21  2  0  0  0  0
 23 22  1  0  0  0  0
 23 16  2  0  0  0  0
 24 26  1  0  0  0  0
 24 25  1  0  0  0  0
 26 28  1  0  0  0  0
 27 26  2  0  0  0  0
 28 29  1  0  0  0  0
 29 37  2  0  0  0  0
 29 30  1  0  0  0  0
 30 32  1  0  0  0  0
 31 30  2  0  0  0  0
 32 34  1  0  0  0  0
 32 33  1  0  0  0  0
 34 36  1  0  0  0  0
 35 34  2  0  0  0  0
 37 35  1  0  0  0  0
M  END
>  <ADSCOR>
   -9.69

$$$$
85
 OpenBabel08042116023D

 39 42  0  0  1  0  0  0  0  0999 V2000
  -22.4320   12.2240  -29.3070 C   0  0  0  0  0  0  0  0  0  0  0  0
  -22.8540   12.8910  -28.1560 C   0  0  0  0  0  0  0  0  0  0  0  0
  -22.0500   13.8970  -27.6470 C   0  0  0  0  0  0  0  0  0  0  0  0
  -22.2820   14.7160  -26.4150 C   0  0  0  0  0  0  0  0  0  0  0  0
  -21.3230   15.8930  -26.6680 C   0  0  2  0  0  0  0  0  0  0  0  0
  -20.1360   15.3190  -27.4800 C   0  0  1  0  0  0  0  0  0  0  0  0
  -20.8350   14.2370  -28.2580 C   0  0  0  0  0  0  0  0  0  0  0  0
  -20.4060   13.5680  -29.3960 C   0  0  0  0  0  0  0  0  0  0  0  0
  -21.2170   12.5600  -29.9230 C   0  0  0  0  0  0  0  0  0  0  0  0
  -20.9060   16.5360  -25.4530 N   0  0  0  0  0  0  0  0  0  0  0  0
  -20.8220   17.5510  -25.4530 H   0  0  0  0  0  0  0  0  0  0  0  0
  -20.6570   15.8280  -24.2850 C   0  0  0  0  0  0  0  0  0  0  0  0
  -20.7590   14.6120  -24.1590 O   0  0  0  0  0  0  0  0  0  0  0  0
  -20.2440   16.7190  -23.1660 C   0  0  0  0  0  0  0  0  0  0  0  0
  -21.0770   17.6700  -22.7220 C   0  0  0  0  0  0  0  0  0  0  0  0
  -20.7440   18.5630  -21.6480 C   0  0  0  0  0  0  0  0  0  0  0  0
  -19.8640   19.7330  -21.9030 C   0  0  0  0  0  0  0  0  0  0  0  0
  -19.3980   19.9820  -23.0110 O   0  0  0  0  0  0  0  0  0  0  0  0
  -19.6290   20.5010  -20.7780 N   0  0  0  0  0  0  0  0  0  0  0  0
  -19.0370   21.3220  -20.8640 H   0  0  0  0  0  0  0  0  0  0  0  0
  -20.1700   20.1890  -19.5520 C   0  0  0  0  0  0  0  0  0  0  0  0
  -20.9360   19.1740  -19.3180 N   0  0  0  0  0  0  0  0  0  0  0  0
  -21.2040   18.3740  -20.4020 C   0  0  0  0  0  0  0  0  0  0  0  0
  -19.4450   16.3770  -28.3290 C   0  0  0  0  0  0  0  0  0  0  0  0
  -19.1350   17.5170  -27.5310 N   0  0  0  0  0  0  0  0  0  0  0  0
  -18.9920   17.3870  -26.5250 H   0  0  0  0  0  0  0  0  0  0  0  0
  -18.9810   18.7950  -28.0670 C   0  0  0  0  0  0  0  0  0  0  0  0
  -19.0910   19.0730  -29.2570 O   0  0  0  0  0  0  0  0  0  0  0  0
  -18.6560   19.8140  -27.0310 C   0  0  0  0  0  0  0  0  0  0  0  0
  -18.7680   21.1180  -27.3140 C   0  0  0  0  0  0  0  0  0  0  0  0
  -18.4710   22.1520  -26.3630 C   0  0  0  0  0  0  0  0  0  0  0  0
  -17.0690   22.5970  -26.1640 C   0  0  0  0  0  0  0  0  0  0  0  0
  -16.1270   22.1140  -26.7850 O   0  0  0  0  0  0  0  0  0  0  0  0
  -16.9340   23.5980  -25.2180 N   0  0  0  0  0  0  0  0  0  0  0  0
  -16.0000   23.9500  -25.0300 H   0  0  0  0  0  0  0  0  0  0  0  0
  -18.0120   24.1210  -24.5350 C   0  0  0  0  0  0  0  0  0  0  0  0
  -19.2380   23.7340  -24.7060 N   0  0  0  0  0  0  0  0  0  0  0  0
  -17.6900   25.2000  -23.5430 C   0  0  0  0  0  0  0  0  0  0  0  0
  -19.4310   22.7420  -25.6350 C   0  0  0  0  0  0  0  0  0  0  0  0
  1  2  2  0  0  0  0
  2  3  1  0  0  0  0
  3  4  1  0  0  0  0
  5  4  1  0  0  0  0
  5 10  1  1  0  0  0
  6 24  1  6  0  0  0
  6  5  1  0  0  0  0
  7  3  2  0  0  0  0
  7  6  1  0  0  0  0
  8  7  1  0  0  0  0
  9  8  2  0  0  0  0
  9  1  1  0  0  0  0
 10 11  1  0  0  0  0
 10 12  1  0  0  0  0
 12 13  2  0  0  0  0
 12 14  1  0  0  0  0
 14 15  2  0  0  0  0
 15 16  1  0  0  0  0
 16 23  2  0  0  0  0
 17 16  1  0  0  0  0
 17 19  1  0  0  0  0
 18 17  2  0  0  0  0
 19 21  1  0  0  0  0
 20 19  1  0  0  0  0
 21 22  2  0  0  0  0
 23 22  1  0  0  0  0
 24 25  1  0  0  0  0
 25 26  1  0  0  0  0
 27 25  1  0  0  0  0
 27 29  1  0  0  0  0
 28 27  2  0  0  0  0
 30 29  2  0  0  0  0
 30 31  1  0  0  0  0
 31 32  1  0  0  0  0
 31 39  2  0  0  0  0
 32 34  1  0  0  0  0
 33 32  2  0  0  0  0
 34 35  1  0  0  0  0
 34 36  1  0  0  0  0
 36 38  1  0  0  0  0
 37 36  2  0  0  0  0
 39 37  1  0  0  0  0
M  END
>  <ADSCOR>
   -9.70

$$$$
86
 OpenBabel08042116023D

 38 41  0  0  1  0  0  0  0  0999 V2000
  -21.1150   15.5550  -24.5640 C   0  0  0  0  0  0  0  0  0  0  0  0
  -21.9440   15.7020  -25.6760 C   0  0  0  0  0  0  0  0  0  0  0  0
  -21.7420   14.9250  -26.8270 C   0  0  0  0  0  0  0  0  0  0  0  0
  -22.6520   15.1290  -28.0130 C   0  0  0  0  0  0  0  0  0  0  0  0
  -22.4020   14.2380  -29.1570 N   0  0  0  0  0  0  0  0  0  0  0  0
  -21.7600   12.9570  -28.8560 C   0  0  0  0  0  0  0  0  0  0  0  0
  -20.4530   13.1440  -28.0810 C   0  0  2  0  0  0  0  0  0  0  0  0
  -22.8480   14.4800  -30.4570 C   0  0  0  0  0  0  0  0  0  0  0  0
  -22.6430   13.7410  -31.4220 O   0  0  0  0  0  0  0  0  0  0  0  0
  -20.6930   13.9910  -26.8510 C   0  0  0  0  0  0  0  0  0  0  0  0
  -19.8600   13.8550  -25.7300 C   0  0  0  0  0  0  0  0  0  0  0  0
  -20.0720   14.6330  -24.5920 C   0  0  0  0  0  0  0  0  0  0  0  0
  -23.6310   15.7130  -30.6890 C   0  0  0  0  0  0  0  0  0  0  0  0
  -24.0730   15.9680  -31.9240 C   0  0  0  0  0  0  0  0  0  0  0  0
  -24.8400   17.1350  -32.2550 C   0  0  0  0  0  0  0  0  0  0  0  0
  -24.1650   18.4510  -32.3950 C   0  0  0  0  0  0  0  0  0  0  0  0
  -22.9570   18.5950  -32.2350 O   0  0  0  0  0  0  0  0  0  0  0  0
  -25.0270   19.4830  -32.7150 N   0  0  0  0  0  0  0  0  0  0  0  0
  -24.6330   20.4130  -32.8250 H   0  0  0  0  0  0  0  0  0  0  0  0
  -26.3830   19.2900  -32.8870 C   0  0  0  0  0  0  0  0  0  0  0  0
  -26.9740   18.1430  -32.7670 N   0  0  0  0  0  0  0  0  0  0  0  0
  -27.1740   20.5180  -33.2330 C   0  0  0  0  0  0  0  0  0  0  0  0
  -26.1650   17.0810  -32.4480 C   0  0  0  0  0  0  0  0  0  0  0  0
  -19.3580   13.7570  -28.9580 C   0  0  0  0  0  0  0  0  0  0  0  0
  -19.0410   15.0610  -28.4830 N   0  0  0  0  0  0  0  0  0  0  0  0
  -18.3810   15.1430  -27.7020 H   0  0  0  0  0  0  0  0  0  0  0  0
  -19.5770   16.2400  -29.0160 C   0  0  0  0  0  0  0  0  0  0  0  0
  -20.3760   16.2810  -29.9480 O   0  0  0  0  0  0  0  0  0  0  0  0
  -19.0630   17.4680  -28.3090 C   0  0  0  0  0  0  0  0  0  0  0  0
  -20.1600   18.1060  -27.5670 N   0  0  0  0  0  0  0  0  0  0  0  0
  -21.4230   18.0580  -28.1100 N   0  0  0  0  0  0  0  0  0  0  0  0
  -21.5290   17.5840  -29.0020 H   0  0  0  0  0  0  0  0  0  0  0  0
  -22.5060   18.6230  -27.4870 C   0  0  0  0  0  0  0  0  0  0  0  0
  -23.6460   18.5990  -27.9440 O   0  0  0  0  0  0  0  0  0  0  0  0
  -22.2420   19.2890  -26.1970 C   0  0  0  0  0  0  0  0  0  0  0  0
  -21.0140   19.3290  -25.6830 C   0  0  0  0  0  0  0  0  0  0  0  0
  -19.8660   18.7090  -26.3770 C   0  0  0  0  0  0  0  0  0  0  0  0
  -18.7520   18.7730  -25.8600 O   0  0  0  0  0  0  0  0  0  0  0  0
  2  1  2  0  0  0  0
  3  2  1  0  0  0  0
  4  3  1  0  0  0  0
  5  6  1  0  0  0  0
  5  4  1  0  0  0  0
  6  7  1  0  0  0  0
  7 24  1  6  0  0  0
  7 10  1  0  0  0  0
  8  5  1  0  0  0  0
  9  8  2  0  0  0  0
 10  3  2  0  0  0  0
 10 11  1  0  0  0  0
 11 12  2  0  0  0  0
 12  1  1  0  0  0  0
 13  8  1  0  0  0  0
 14 13  2  0  0  0  0
 15 14  1  0  0  0  0
 16 15  1  0  0  0  0
 16 17  2  0  0  0  0
 18 16  1  0  0  0  0
 19 18  1  0  0  0  0
 20 21  2  0  0  0  0
 20 18  1  0  0  0  0
 21 23  1  0  0  0  0
 22 20  1  0  0  0  0
 23 15  2  0  0  0  0
 24 25  1  0  0  0  0
 25 26  1  0  0  0  0
 27 25  1  0  0  0  0
 27 29  1  0  0  0  0
 28 27  2  0  0  0  0
 29 30  1  0  0  0  0
 30 37  1  0  0  0  0
 31 30  1  0  0  0  0
 31 33  1  0  0  0  0
 32 31  1  0  0  0  0
 33 35  1  0  0  0  0
 34 33  2  0  0  0  0
 35 36  2  0  0  0  0
 37 38  2  0  0  0  0
 37 36  1  0  0  0  0
M  END
>  <ADSCOR>
   -7.83

$$$$
87
 OpenBabel08042116023D

 39 42  0  0  1  0  0  0  0  0999 V2000
  -20.1470   18.4570  -27.5190 C   0  0  1  0  0  0  0  0  0  0  0  0
  -16.9900   23.6540  -25.1730 C   0  0  0  0  0  0  0  0  0  0  0  0
  -18.3290   23.2770  -25.0690 C   0  0  0  0  0  0  0  0  0  0  0  0
  -18.7890   22.0930  -25.6680 C   0  0  0  0  0  0  0  0  0  0  0  0
  -17.8780   21.2800  -26.3830 C   0  0  0  0  0  0  0  0  0  0  0  0
  -18.3370   20.0960  -26.9820 C   0  0  0  0  0  0  0  0  0  0  0  0
  -19.6770   19.7180  -26.8770 C   0  0  0  0  0  0  0  0  0  0  0  0
  -20.5720   20.5180  -26.1750 C   0  0  0  0  0  0  0  0  0  0  0  0
  -16.5330   21.6750  -26.4780 C   0  0  0  0  0  0  0  0  0  0  0  0
  -20.1340   21.6970  -25.5730 C   0  0  0  0  0  0  0  0  0  0  0  0
  -16.0950   22.8550  -25.8760 C   0  0  0  0  0  0  0  0  0  0  0  0
  -20.5780   17.4600  -26.5170 N   0  0  0  0  0  0  0  0  0  0  0  0
  -21.4370   16.9850  -26.7130 H   0  0  0  0  0  0  0  0  0  0  0  0
  -19.8100   17.1900  -25.4190 C   0  0  0  0  0  0  0  0  0  0  0  0
  -18.7320   17.7040  -25.1350 O   0  0  0  0  0  0  0  0  0  0  0  0
  -20.4530   16.1520  -24.5680 C   0  0  0  0  0  0  0  0  0  0  0  0
  -20.3650   16.2270  -23.2340 C   0  0  0  0  0  0  0  0  0  0  0  0
  -20.9600   15.2590  -22.3550 C   0  0  0  0  0  0  0  0  0  0  0  0
  -20.2650   13.9720  -22.0890 C   0  0  0  0  0  0  0  0  0  0  0  0
  -19.1830   13.6880  -22.5940 O   0  0  0  0  0  0  0  0  0  0  0  0
  -20.9560   13.1410  -21.2270 N   0  0  0  0  0  0  0  0  0  0  0  0
  -20.5510   12.2400  -20.9910 H   0  0  0  0  0  0  0  0  0  0  0  0
  -22.1680   13.4960  -20.6820 C   0  0  0  0  0  0  0  0  0  0  0  0
  -22.7810   14.6110  -20.9050 N   0  0  0  0  0  0  0  0  0  0  0  0
  -22.1400   15.4780  -21.7560 C   0  0  0  0  0  0  0  0  0  0  0  0
  -21.2870   18.6580  -28.5460 C   0  0  0  0  0  0  0  0  0  0  0  0
  -21.5680   17.4470  -29.2720 N   0  0  0  0  0  0  0  0  0  0  0  0
  -21.1540   17.3310  -30.1960 H   0  0  0  0  0  0  0  0  0  0  0  0
  -22.3740   16.4260  -28.7800 C   0  0  0  0  0  0  0  0  0  0  0  0
  -22.9340   16.4350  -27.6870 O   0  0  0  0  0  0  0  0  0  0  0  0
  -22.4890   15.2870  -29.7610 C   0  0  0  0  0  0  0  0  0  0  0  0
  -21.3050   14.4240  -29.6550 N   0  0  0  0  0  0  0  0  0  0  0  0
  -20.0490   14.8870  -29.1410 C   0  0  0  0  0  0  0  0  0  0  0  0
  -19.2330   13.6180  -29.2640 C   0  0  0  0  0  0  0  0  0  0  0  0
  -18.0580   13.5170  -28.9400 O   0  0  0  0  0  0  0  0  0  0  0  0
  -20.0300   12.6330  -29.7930 N   0  0  0  0  0  0  0  0  0  0  0  0
  -19.7200   11.6860  -29.9760 H   0  0  0  0  0  0  0  0  0  0  0  0
  -21.3060   13.0950  -30.0430 C   0  0  0  0  0  0  0  0  0  0  0  0
  -22.2300   12.4440  -30.5110 O   0  0  0  0  0  0  0  0  0  0  0  0
  1 26  1  6  0  0  0
  1  7  1  0  0  0  0
  1 12  1  0  0  0  0
  2  3  1  0  0  0  0
  4 10  1  0  0  0  0
  4  3  2  0  0  0  0
  5  4  1  0  0  0  0
  6  7  2  0  0  0  0
  6  5  1  0  0  0  0
  7  8  1  0  0  0  0
  8 10  2  0  0  0  0
  9  5  2  0  0  0  0
  9 11  1  0  0  0  0
 11  2  2  0  0  0  0
 12 14  1  0  0  0  0
 13 12  1  0  0  0  0
 14 15  2  0  0  0  0
 14 16  1  0  0  0  0
 16 17  2  0  0  0  0
 17 18  1  0  0  0  0
 18 19  1  0  0  0  0
 18 25  2  0  0  0  0
 19 21  1  0  0  0  0
 20 19  2  0  0  0  0
 21 22  1  0  0  0  0
 21 23  1  0  0  0  0
 24 23  2  0  0  0  0
 25 24  1  0  0  0  0
 27 29  1  0  0  0  0
 27 26  1  0  0  0  0
 28 27  1  0  0  0  0
 29 30  2  0  0  0  0
 31 32  1  0  0  0  0
 31 29  1  0  0  0  0
 32 33  1  0  0  0  0
 34 33  1  0  0  0  0
 34 35  2  0  0  0  0
 36 34  1  0  0  0  0
 37 36  1  0  0  0  0
 38 36  1  0  0  0  0
 38 32  1  0  0  0  0
 39 38  2  0  0  0  0
M  END
>  <ADSCOR>
   -9.18

$$$$
88
 OpenBabel08042116023D

 35 38  0  0  1  0  0  0  0  0999 V2000
  -23.5910   14.8920  -31.0630 C   0  0  0  0  0  0  0  0  0  0  0  0
  -23.0640   13.8810  -30.2590 C   0  0  0  0  0  0  0  0  0  0  0  0
  -21.8170   14.0770  -29.6880 C   0  0  0  0  0  0  0  0  0  0  0  0
  -21.0450   13.1200  -28.8330 C   0  0  0  0  0  0  0  0  0  0  0  0
  -19.9840   14.0450  -28.2050 C   0  0  1  0  0  0  0  0  0  0  0  0
  -19.7560   15.1900  -29.2260 C   0  0  1  0  0  0  0  0  0  0  0  0
  -21.0920   15.2530  -29.9130 C   0  0  0  0  0  0  0  0  0  0  0  0
  -21.6030   16.2540  -30.7250 C   0  0  0  0  0  0  0  0  0  0  0  0
  -22.8650   16.0710  -31.2960 C   0  0  0  0  0  0  0  0  0  0  0  0
  -20.4340   14.5270  -26.9150 N   0  0  0  0  0  0  0  0  0  0  0  0
  -20.9950   15.3770  -26.8860 H   0  0  0  0  0  0  0  0  0  0  0  0
  -20.1420   13.8900  -25.7120 C   0  0  0  0  0  0  0  0  0  0  0  0
  -19.4790   12.8620  -25.6030 O   0  0  0  0  0  0  0  0  0  0  0  0
  -20.7400   14.6200  -24.5370 C   0  0  0  0  0  0  0  0  0  0  0  0
  -19.9450   14.3480  -23.3300 N   0  0  0  0  0  0  0  0  0  0  0  0
  -20.5210   13.5930  -22.3070 C   0  0  0  0  0  0  0  0  0  0  0  0
  -21.6560   13.1200  -22.3120 O   0  0  0  0  0  0  0  0  0  0  0  0
  -19.6490   13.3620  -21.1160 C   0  0  0  0  0  0  0  0  0  0  0  0
  -18.4090   13.8640  -21.0850 C   0  0  0  0  0  0  0  0  0  0  0  0
  -17.8930   14.6310  -22.1860 C   0  0  0  0  0  0  0  0  0  0  0  0
  -18.6620   14.8480  -23.2590 C   0  0  0  0  0  0  0  0  0  0  0  0
  -19.3400   16.4280  -28.6260 N   0  0  0  0  0  0  0  0  0  0  0  0
  -18.3720   16.7170  -28.7520 H   0  0  0  0  0  0  0  0  0  0  0  0
  -20.2170   17.2430  -27.9250 C   0  0  0  0  0  0  0  0  0  0  0  0
  -21.4080   17.0120  -27.7430 O   0  0  0  0  0  0  0  0  0  0  0  0
  -19.5490   18.4670  -27.4060 C   0  0  0  0  0  0  0  0  0  0  0  0
  -18.7080   19.1560  -28.1880 C   0  0  0  0  0  0  0  0  0  0  0  0
  -18.0300   20.3450  -27.7520 C   0  0  0  0  0  0  0  0  0  0  0  0
  -18.3040   21.6430  -28.4220 C   0  0  0  0  0  0  0  0  0  0  0  0
  -19.1010   21.7540  -29.3490 O   0  0  0  0  0  0  0  0  0  0  0  0
  -17.5800   22.6970  -27.8980 N   0  0  0  0  0  0  0  0  0  0  0  0
  -17.7080   23.6230  -28.2980 H   0  0  0  0  0  0  0  0  0  0  0  0
  -16.6950   22.5330  -26.8570 C   0  0  0  0  0  0  0  0  0  0  0  0
  -16.4480   21.4100  -26.2670 N   0  0  0  0  0  0  0  0  0  0  0  0
  -17.1410   20.3250  -26.7470 C   0  0  0  0  0  0  0  0  0  0  0  0
  1  2  1  0  0  0  0
  2  3  2  0  0  0  0
  3  4  1  0  0  0  0
  4  5  1  0  0  0  0
  5 10  1  1  0  0  0
  6 22  1  1  0  0  0
  6  5  1  0  0  0  0
  7  3  1  0  0  0  0
  7  6  1  0  0  0  0
  8  7  2  0  0  0  0
  9  1  2  0  0  0  0
  9  8  1  0  0  0  0
 10 11  1  0  0  0  0
 10 12  1  0  0  0  0
 12 13  2  0  0  0  0
 12 14  1  0  0  0  0
 14 15  1  0  0  0  0
 15 21  1  0  0  0  0
 15 16  1  0  0  0  0
 16 18  1  0  0  0  0
 17 16  2  0  0  0  0
 18 19  2  0  0  0  0
 20 19  1  0  0  0  0
 21 20  2  0  0  0  0
 22 24  1  0  0  0  0
 23 22  1  0  0  0  0
 24 25  2  0  0  0  0
 24 26  1  0  0  0  0
 27 28  1  0  0  0  0
 27 26  2  0  0  0  0
 28 35  2  0  0  0  0
 29 31  1  0  0  0  0
 29 28  1  0  0  0  0
 30 29  2  0  0  0  0
 31 33  1  0  0  0  0
 32 31  1  0  0  0  0
 33 34  2  0  0  0  0
 35 34  1  0  0  0  0
M  END
>  <ADSCOR>
   -10.51

$$$$
89
 OpenBabel08042116023D

 38 41  0  0  1  0  0  0  0  0999 V2000
  -19.1380   15.6520  -24.9510 C   0  0  1  0  0  0  0  0  0  0  0  0
  -22.9940   13.1180  -29.5540 C   0  0  0  0  0  0  0  0  0  0  0  0
  -23.2970   13.8980  -28.4380 C   0  0  0  0  0  0  0  0  0  0  0  0
  -22.2820   14.3350  -27.5720 C   0  0  0  0  0  0  0  0  0  0  0  0
  -20.9400   13.9770  -27.8420 C   0  0  0  0  0  0  0  0  0  0  0  0
  -19.9240   14.4150  -26.9760 C   0  0  0  0  0  0  0  0  0  0  0  0
  -20.2280   15.1950  -25.8600 C   0  0  0  0  0  0  0  0  0  0  0  0
  -21.5490   15.5470  -25.5940 C   0  0  0  0  0  0  0  0  0  0  0  0
  -20.6530   13.1920  -28.9710 C   0  0  0  0  0  0  0  0  0  0  0  0
  -22.5700   15.1210  -26.4430 C   0  0  0  0  0  0  0  0  0  0  0  0
  -21.6740   12.7660  -29.8190 C   0  0  0  0  0  0  0  0  0  0  0  0
  -19.1940   17.1100  -24.7170 N   0  0  0  0  0  0  0  0  0  0  0  0
  -19.2840   17.3980  -23.7630 H   0  0  0  0  0  0  0  0  0  0  0  0
  -19.0850   17.9940  -25.7540 C   0  0  0  0  0  0  0  0  0  0  0  0
  -18.9360   17.7160  -26.9400 O   0  0  0  0  0  0  0  0  0  0  0  0
  -19.1670   19.3970  -25.2620 C   0  0  0  0  0  0  0  0  0  0  0  0
  -18.3960   20.3450  -25.8080 C   0  0  0  0  0  0  0  0  0  0  0  0
  -18.4220   21.7170  -25.3820 C   0  0  0  0  0  0  0  0  0  0  0  0
  -17.1880   22.5410  -25.4580 C   0  0  0  0  0  0  0  0  0  0  0  0
  -16.1220   22.1010  -25.8770 O   0  0  0  0  0  0  0  0  0  0  0  0
  -17.3640   23.8390  -25.0150 N   0  0  0  0  0  0  0  0  0  0  0  0
  -16.5700   24.4720  -25.0320 H   0  0  0  0  0  0  0  0  0  0  0  0
  -18.5770   24.2970  -24.5520 C   0  0  0  0  0  0  0  0  0  0  0  0
  -19.6550   23.5900  -24.4810 N   0  0  0  0  0  0  0  0  0  0  0  0
  -19.5400   22.2900  -24.9100 C   0  0  0  0  0  0  0  0  0  0  0  0
  -19.1090   14.9280  -23.5830 C   0  0  0  0  0  0  0  0  0  0  0  0
  -20.3730   15.0280  -22.9020 N   0  0  0  0  0  0  0  0  0  0  0  0
  -20.9730   15.8250  -23.1050 H   0  0  0  0  0  0  0  0  0  0  0  0
  -20.8100   14.0890  -21.9840 C   0  0  0  0  0  0  0  0  0  0  0  0
  -20.2120   13.0780  -21.6310 O   0  0  0  0  0  0  0  0  0  0  0  0
  -22.1340   14.4130  -21.4200 C   0  0  0  0  0  0  0  0  0  0  0  0
  -22.6020   15.6550  -21.6050 C   0  0  0  0  0  0  0  0  0  0  0  0
  -23.9410   16.0200  -21.0470 C   0  0  0  0  0  0  0  0  0  0  0  0
  -24.3900   17.1530  -21.2040 O   0  0  0  0  0  0  0  0  0  0  0  0
  -24.6020   15.0090  -20.3680 N   0  0  0  0  0  0  0  0  0  0  0  0
  -25.5170   15.2010  -19.9690 H   0  0  0  0  0  0  0  0  0  0  0  0
  -24.0900   13.7460  -20.2000 C   0  0  0  0  0  0  0  0  0  0  0  0
  -22.8920   13.4200  -20.6980 C   0  0  0  0  0  0  0  0  0  0  0  0
  1 12  1  0  0  0  0
  1 26  1  1  0  0  0
  2  3  1  0  0  0  0
  3  4  2  0  0  0  0
  4 10  1  0  0  0  0
  5  4  1  0  0  0  0
  5  6  1  0  0  0  0
  6  7  2  0  0  0  0
  7  8  1  0  0  0  0
  7  1  1  0  0  0  0
  9  5  2  0  0  0  0
 10  8  2  0  0  0  0
 11  2  2  0  0  0  0
 11  9  1  0  0  0  0
 12 13  1  0  0  0  0
 14 16  1  0  0  0  0
 14 12  1  0  0  0  0
 15 14  2  0  0  0  0
 17 18  1  0  0  0  0
 17 16  2  0  0  0  0
 18 25  2  0  0  0  0
 19 18  1  0  0  0  0
 19 21  1  0  0  0  0
 20 19  2  0  0  0  0
 21 23  1  0  0  0  0
 22 21  1  0  0  0  0
 23 24  2  0  0  0  0
 25 24  1  0  0  0  0
 26 27  1  0  0  0  0
 27 29  1  0  0  0  0
 28 27  1  0  0  0  0
 29 30  2  0  0  0  0
 29 31  1  0  0  0  0
 31 38  1  0  0  0  0
 32 31  2  0  0  0  0
 32 33  1  0  0  0  0
 33 35  1  0  0  0  0
 34 33  2  0  0  0  0
 35 37  1  0  0  0  0
 35 36  1  0  0  0  0
 38 37  2  0  0  0  0
M  END
>  <ADSCOR>
   -9.90

$$$$
9
 OpenBabel08042116023D

 37 40  0  0  1  0  0  0  0  0999 V2000
  -21.2940   12.9940  -29.4730 C   0  0  0  0  0  0  0  0  0  0  0  0
  -20.5990   14.1530  -29.8210 C   0  0  0  0  0  0  0  0  0  0  0  0
  -20.8580   15.3130  -29.1110 C   0  0  0  0  0  0  0  0  0  0  0  0
  -20.2150   16.6560  -29.2780 C   0  0  0  0  0  0  0  0  0  0  0  0
  -21.2190   17.5550  -28.5310 C   0  0  1  0  0  0  0  0  0  0  0  0
  -21.8570   16.6820  -27.4220 C   0  0  1  0  0  0  0  0  0  0  0  0
  -21.7830   15.3250  -28.0580 C   0  0  0  0  0  0  0  0  0  0  0  0
  -22.4720   14.1770  -27.7030 C   0  0  0  0  0  0  0  0  0  0  0  0
  -22.2250   13.0060  -28.4220 C   0  0  0  0  0  0  0  0  0  0  0  0
  -20.6210   18.7730  -28.0600 N   0  0  0  0  0  0  0  0  0  0  0  0
  -21.1230   19.6450  -28.2170 H   0  0  0  0  0  0  0  0  0  0  0  0
  -19.4150   18.7910  -27.3720 C   0  0  0  0  0  0  0  0  0  0  0  0
  -18.7430   17.8040  -27.0950 O   0  0  0  0  0  0  0  0  0  0  0  0
  -19.0090   20.1720  -26.9890 C   0  0  0  0  0  0  0  0  0  0  0  0
  -19.0130   20.5390  -25.7010 C   0  0  0  0  0  0  0  0  0  0  0  0
  -18.6340   21.8530  -25.2610 C   0  0  0  0  0  0  0  0  0  0  0  0
  -17.3090   22.4080  -25.6380 C   0  0  0  0  0  0  0  0  0  0  0  0
  -16.5020   21.7870  -26.3230 O   0  0  0  0  0  0  0  0  0  0  0  0
  -17.0820   23.6800  -25.1460 N   0  0  0  0  0  0  0  0  0  0  0  0
  -16.1940   24.1220  -25.3650 H   0  0  0  0  0  0  0  0  0  0  0  0
  -18.0100   24.3540  -24.3770 C   0  0  0  0  0  0  0  0  0  0  0  0
  -19.1670   23.8710  -24.0470 N   0  0  0  0  0  0  0  0  0  0  0  0
  -17.6020   25.7260  -23.9230 C   0  0  0  0  0  0  0  0  0  0  0  0
  -19.4460   22.6100  -24.5100 C   0  0  0  0  0  0  0  0  0  0  0  0
  -21.1420   16.7150  -26.1730 N   0  0  0  0  0  0  0  0  0  0  0  0
  -20.1460   16.5070  -26.1760 H   0  0  0  0  0  0  0  0  0  0  0  0
  -21.7560   17.0200  -24.9630 C   0  0  0  0  0  0  0  0  0  0  0  0
  -22.9470   17.2870  -24.8290 O   0  0  0  0  0  0  0  0  0  0  0  0
  -20.7710   16.9770  -23.8100 C   0  0  0  0  0  0  0  0  0  0  0  0
  -21.0820   15.9060  -22.7990 C   0  0  0  0  0  0  0  0  0  0  0  0
  -21.7760   16.2000  -21.6360 C   0  0  0  0  0  0  0  0  0  0  0  0
  -22.0870   15.2870  -20.6890 N   0  0  0  0  0  0  0  0  0  0  0  0
  -21.6820   14.0190  -20.9220 C   0  0  0  0  0  0  0  0  0  0  0  0
  -20.9850   13.6220  -22.0520 C   0  0  0  0  0  0  0  0  0  0  0  0
  -20.6830   14.5900  -23.0040 C   0  0  0  0  0  0  0  0  0  0  0  0
  -20.6090   12.3300  -22.2250 O   0  0  0  0  0  0  0  0  0  0  0  0
  -20.7930   11.8110  -21.4240 H   0  0  0  0  0  0  0  0  0  0  0  0
  1  9  1  0  0  0  0
  2  1  2  0  0  0  0
  2  3  1  0  0  0  0
  3  7  2  0  0  0  0
  4  3  1  0  0  0  0
  4  5  1  0  0  0  0
  5 10  1  1  0  0  0
  5  6  1  0  0  0  0
  6 25  1  1  0  0  0
  7  8  1  0  0  0  0
  7  6  1  0  0  0  0
  9  8  2  0  0  0  0
 10 12  1  0  0  0  0
 11 10  1  0  0  0  0
 12 13  2  0  0  0  0
 12 14  1  0  0  0  0
 14 15  2  0  0  0  0
 15 16  1  0  0  0  0
 16 24  2  0  0  0  0
 17 16  1  0  0  0  0
 17 19  1  0  0  0  0
 18 17  2  0  0  0  0
 19 21  1  0  0  0  0
 20 19  1  0  0  0  0
 21 22  2  0  0  0  0
 21 23  1  0  0  0  0
 24 22  1  0  0  0  0
 25 27  1  0  0  0  0
 26 25  1  0  0  0  0
 27 28  2  0  0  0  0
 27 29  1  0  0  0  0
 29 30  1  0  0  0  0
 30 31  1  0  0  0  0
 31 32  2  0  0  0  0
 33 32  1  0  0  0  0
 34 33  2  0  0  0  0
 35 30  2  0  0  0  0
 35 34  1  0  0  0  0
 36 34  1  0  0  0  0
 36 37  1  0  0  0  0
M  END
>  <ADSCOR>
   -8.85

$$$$
90
 OpenBabel08042116023D

 40 43  0  0  1  0  0  0  0  0999 V2000
  -20.1280   17.9820  -25.7930 C   0  0  1  0  0  0  0  0  0  0  0  0
  -17.7430   24.0040  -25.0650 C   0  0  0  0  0  0  0  0  0  0  0  0
  -17.3790   22.9790  -25.9380 C   0  0  0  0  0  0  0  0  0  0  0  0
  -18.0480   21.7440  -25.9120 C   0  0  0  0  0  0  0  0  0  0  0  0
  -19.1010   21.5480  -24.9870 C   0  0  0  0  0  0  0  0  0  0  0  0
  -19.7700   20.3130  -24.9610 C   0  0  0  0  0  0  0  0  0  0  0  0
  -19.4060   19.2870  -25.8340 C   0  0  0  0  0  0  0  0  0  0  0  0
  -18.3710   19.4810  -26.7440 C   0  0  0  0  0  0  0  0  0  0  0  0
  -19.4540   22.5900  -24.1160 C   0  0  0  0  0  0  0  0  0  0  0  0
  -17.6950   20.7010  -26.7830 C   0  0  0  0  0  0  0  0  0  0  0  0
  -18.7780   23.8110  -24.1560 C   0  0  0  0  0  0  0  0  0  0  0  0
  -20.5780   17.5630  -27.1370 N   0  0  0  0  0  0  0  0  0  0  0  0
  -19.9670   17.7020  -27.9180 H   0  0  0  0  0  0  0  0  0  0  0  0
  -21.8040   16.9910  -27.3490 C   0  0  0  0  0  0  0  0  0  0  0  0
  -22.6560   16.7570  -26.4950 O   0  0  0  0  0  0  0  0  0  0  0  0
  -21.9870   16.6730  -28.8100 C   0  0  0  0  0  0  0  0  0  0  0  0
  -21.5100   15.3090  -29.0830 N   0  0  0  0  0  0  0  0  0  0  0  0
  -22.4360   14.3630  -29.4560 N   0  0  0  0  0  0  0  0  0  0  0  0
  -23.4050   14.6580  -29.5230 H   0  0  0  0  0  0  0  0  0  0  0  0
  -22.0820   13.0660  -29.7310 C   0  0  0  0  0  0  0  0  0  0  0  0
  -22.8830   12.1970  -30.0680 O   0  0  0  0  0  0  0  0  0  0  0  0
  -20.6500   12.7390  -29.6030 C   0  0  0  0  0  0  0  0  0  0  0  0
  -19.7630   13.6650  -29.2390 C   0  0  0  0  0  0  0  0  0  0  0  0
  -20.1750   15.0550  -28.9490 C   0  0  0  0  0  0  0  0  0  0  0  0
  -19.3180   15.8740  -28.6170 O   0  0  0  0  0  0  0  0  0  0  0  0
  -19.3150   16.8290  -25.1560 C   0  0  0  0  0  0  0  0  0  0  0  0
  -19.9400   16.3400  -23.9550 N   0  0  0  0  0  0  0  0  0  0  0  0
  -19.7490   16.8210  -23.0770 H   0  0  0  0  0  0  0  0  0  0  0  0
  -20.7860   15.2460  -23.9380 C   0  0  0  0  0  0  0  0  0  0  0  0
  -21.1150   14.5620  -24.9020 O   0  0  0  0  0  0  0  0  0  0  0  0
  -21.2970   14.9390  -22.5900 C   0  0  0  0  0  0  0  0  0  0  0  0
  -21.1590   13.6000  -21.9370 C   0  0  0  0  0  0  0  0  0  0  0  0
  -20.6000   12.6680  -22.5080 O   0  0  0  0  0  0  0  0  0  0  0  0
  -21.7070   13.5070  -20.6630 N   0  0  0  0  0  0  0  0  0  0  0  0
  -21.6290   12.6080  -20.1950 H   0  0  0  0  0  0  0  0  0  0  0  0
  -22.3520   14.5290  -19.9640 C   0  0  0  0  0  0  0  0  0  0  0  0
  -22.8140   14.3720  -18.8330 O   0  0  0  0  0  0  0  0  0  0  0  0
  -22.4290   15.7290  -20.6500 N   0  0  0  0  0  0  0  0  0  0  0  0
  -22.8880   16.5150  -20.1970 H   0  0  0  0  0  0  0  0  0  0  0  0
  -21.9200   15.9100  -21.9070 C   0  0  0  0  0  0  0  0  0  0  0  0
  1 26  1  6  0  0  0
  2 11  2  0  0  0  0
  3  4  2  0  0  0  0
  3  2  1  0  0  0  0
  4  5  1  0  0  0  0
  5  6  1  0  0  0  0
  5  9  2  0  0  0  0
  7  1  1  0  0  0  0
  7  6  2  0  0  0  0
  8  7  1  0  0  0  0
 10  8  2  0  0  0  0
 10  4  1  0  0  0  0
 11  9  1  0  0  0  0
 12  1  1  0  0  0  0
 13 12  1  0  0  0  0
 14 12  1  0  0  0  0
 14 15  2  0  0  0  0
 16 14  1  0  0  0  0
 17 24  1  0  0  0  0
 17 16  1  0  0  0  0
 18 17  1  0  0  0  0
 19 18  1  0  0  0  0
 20 22  1  0  0  0  0
 20 18  1  0  0  0  0
 21 20  2  0  0  0  0
 22 23  2  0  0  0  0
 23 24  1  0  0  0  0
 24 25  2  0  0  0  0
 26 27  1  0  0  0  0
 27 29  1  0  0  0  0
 27 28  1  0  0  0  0
 29 31  1  0  0  0  0
 30 29  2  0  0  0  0
 31 32  1  0  0  0  0
 31 40  2  0  0  0  0
 32 34  1  0  0  0  0
 33 32  2  0  0  0  0
 34 35  1  0  0  0  0
 34 36  1  0  0  0  0
 36 37  2  0  0  0  0
 38 39  1  0  0  0  0
 38 36  1  0  0  0  0
 40 38  1  0  0  0  0
M  END
>  <ADSCOR>
   -9.21

$$$$
91
 OpenBabel08042116023D

 36 39  0  0  1  0  0  0  0  0999 V2000
  -20.8310   13.9530  -20.7010 C   0  0  0  0  0  0  0  0  0  0  0  0
  -20.2280   13.4860  -21.8700 C   0  0  0  0  0  0  0  0  0  0  0  0
  -20.3800   14.2280  -23.0290 C   0  0  0  0  0  0  0  0  0  0  0  0
  -19.8010   13.9490  -24.3820 C   0  0  0  0  0  0  0  0  0  0  0  0
  -20.6740   14.8590  -25.2670 C   0  0  1  0  0  0  0  0  0  0  0  0
  -21.0910   16.0640  -24.3890 C   0  0  1  0  0  0  0  0  0  0  0  0
  -21.1050   15.4280  -23.0300 C   0  0  0  0  0  0  0  0  0  0  0  0
  -21.7000   15.9000  -21.8720 C   0  0  0  0  0  0  0  0  0  0  0  0
  -21.5630   15.1510  -20.7020 C   0  0  0  0  0  0  0  0  0  0  0  0
  -20.0230   15.2150  -26.4970 N   0  0  0  0  0  0  0  0  0  0  0  0
  -19.9160   16.2050  -26.7170 H   0  0  0  0  0  0  0  0  0  0  0  0
  -19.5330   14.2820  -27.4050 C   0  0  0  0  0  0  0  0  0  0  0  0
  -19.5960   13.0630  -27.2660 O   0  0  0  0  0  0  0  0  0  0  0  0
  -18.9060   14.9480  -28.6040 C   0  0  0  0  0  0  0  0  0  0  0  0
  -19.7880   16.0180  -29.0910 N   0  0  0  0  0  0  0  0  0  0  0  0
  -20.9050   15.7720  -29.9550 C   0  0  0  0  0  0  0  0  0  0  0  0
  -21.4230   17.1850  -30.1200 C   0  0  0  0  0  0  0  0  0  0  0  0
  -22.3980   17.4900  -30.7930 O   0  0  0  0  0  0  0  0  0  0  0  0
  -20.6210   18.0340  -29.3980 N   0  0  0  0  0  0  0  0  0  0  0  0
  -20.7560   19.0370  -29.3440 H   0  0  0  0  0  0  0  0  0  0  0  0
  -19.6100   17.3490  -28.7560 C   0  0  0  0  0  0  0  0  0  0  0  0
  -18.7470   17.8410  -28.0420 O   0  0  0  0  0  0  0  0  0  0  0  0
  -20.1690   17.1680  -24.4400 N   0  0  0  0  0  0  0  0  0  0  0  0
  -19.4690   17.2380  -23.7050 H   0  0  0  0  0  0  0  0  0  0  0  0
  -20.1830   18.0980  -25.4700 C   0  0  0  0  0  0  0  0  0  0  0  0
  -20.9550   18.0890  -26.4230 O   0  0  0  0  0  0  0  0  0  0  0  0
  -19.1300   19.1370  -25.2980 C   0  0  0  0  0  0  0  0  0  0  0  0
  -19.1670   20.2570  -26.0320 C   0  0  0  0  0  0  0  0  0  0  0  0
  -18.1840   21.2990  -25.9200 C   0  0  0  0  0  0  0  0  0  0  0  0
  -18.4850   22.5200  -25.1270 C   0  0  0  0  0  0  0  0  0  0  0  0
  -19.5550   22.6870  -24.5480 O   0  0  0  0  0  0  0  0  0  0  0  0
  -17.4490   23.4340  -25.1100 N   0  0  0  0  0  0  0  0  0  0  0  0
  -17.5700   24.2980  -24.5900 H   0  0  0  0  0  0  0  0  0  0  0  0
  -16.2640   23.2110  -25.7730 C   0  0  0  0  0  0  0  0  0  0  0  0
  -15.9910   22.1550  -26.4640 N   0  0  0  0  0  0  0  0  0  0  0  0
  -16.9860   21.2090  -26.5160 C   0  0  0  0  0  0  0  0  0  0  0  0
  2  1  2  0  0  0  0
  3  2  1  0  0  0  0
  4  3  1  0  0  0  0
  5 10  1  6  0  0  0
  5  6  1  0  0  0  0
  5  4  1  0  0  0  0
  6 23  1  1  0  0  0
  6  7  1  0  0  0  0
  7  3  2  0  0  0  0
  7  8  1  0  0  0  0
  8  9  2  0  0  0  0
  9  1  1  0  0  0  0
 11 10  1  0  0  0  0
 12 13  2  0  0  0  0
 12 10  1  0  0  0  0
 14 12  1  0  0  0  0
 15 21  1  0  0  0  0
 15 14  1  0  0  0  0
 16 15  1  0  0  0  0
 17 16  1  0  0  0  0
 17 19  1  0  0  0  0
 18 17  2  0  0  0  0
 19 20  1  0  0  0  0
 19 21  1  0  0  0  0
 21 22  2  0  0  0  0
 23 24  1  0  0  0  0
 25 27  1  0  0  0  0
 25 23  1  0  0  0  0
 26 25  2  0  0  0  0
 28 29  1  0  0  0  0
 28 27  2  0  0  0  0
 29 30  1  0  0  0  0
 30 32  1  0  0  0  0
 30 31  2  0  0  0  0
 32 33  1  0  0  0  0
 34 32  1  0  0  0  0
 35 34  2  0  0  0  0
 36 35  1  0  0  0  0
 36 29  2  0  0  0  0
M  END
>  <ADSCOR>
   -8.16

$$$$
92
 OpenBabel08042116023D

 42 45  0  0  1  0  0  0  0  0999 V2000
  -20.2590   19.3560  -28.8570 C   0  0  1  0  0  0  0  0  0  0  0  0
  -20.5760   12.8490  -28.6950 C   0  0  0  0  0  0  0  0  0  0  0  0
  -21.5820   13.8120  -28.6350 C   0  0  0  0  0  0  0  0  0  0  0  0
  -21.2690   15.1800  -28.6880 C   0  0  0  0  0  0  0  0  0  0  0  0
  -19.9150   15.5760  -28.8050 C   0  0  0  0  0  0  0  0  0  0  0  0
  -19.6020   16.9440  -28.8590 C   0  0  0  0  0  0  0  0  0  0  0  0
  -20.6090   17.9070  -28.7990 C   0  0  0  0  0  0  0  0  0  0  0  0
  -21.9410   17.5180  -28.6840 C   0  0  0  0  0  0  0  0  0  0  0  0
  -18.9150   14.5920  -28.8650 C   0  0  0  0  0  0  0  0  0  0  0  0
  -22.2700   16.1640  -28.6290 C   0  0  0  0  0  0  0  0  0  0  0  0
  -19.2440   13.2380  -28.8090 C   0  0  0  0  0  0  0  0  0  0  0  0
  -21.0910   20.0820  -29.8400 N   0  0  0  0  0  0  0  0  0  0  0  0
  -21.8580   19.5690  -30.2280 H   0  0  0  0  0  0  0  0  0  0  0  0
  -20.8340   21.3880  -30.1510 C   0  0  0  0  0  0  0  0  0  0  0  0
  -19.9390   22.0880  -29.6890 O   0  0  0  0  0  0  0  0  0  0  0  0
  -21.8100   21.8910  -31.1560 C   0  0  0  0  0  0  0  0  0  0  0  0
  -22.8810   21.1550  -31.4790 C   0  0  0  0  0  0  0  0  0  0  0  0
  -23.8610   21.5780  -32.4410 C   0  0  0  0  0  0  0  0  0  0  0  0
  -24.7070   20.5660  -33.1450 C   0  0  0  0  0  0  0  0  0  0  0  0
  -24.5950   19.3620  -32.9280 O   0  0  0  0  0  0  0  0  0  0  0  0
  -25.6190   21.0910  -34.0530 N   0  0  0  0  0  0  0  0  0  0  0  0
  -26.2070   20.4260  -34.5480 H   0  0  0  0  0  0  0  0  0  0  0  0
  -25.8060   22.4420  -34.3510 C   0  0  0  0  0  0  0  0  0  0  0  0
  -26.6380   22.8340  -35.1690 O   0  0  0  0  0  0  0  0  0  0  0  0
  -24.9780   23.3000  -33.6470 N   0  0  0  0  0  0  0  0  0  0  0  0
  -25.0620   24.2980  -33.8170 H   0  0  0  0  0  0  0  0  0  0  0  0
  -24.0510   22.8720  -32.7360 C   0  0  0  0  0  0  0  0  0  0  0  0
  -20.3460   20.0840  -27.4940 C   0  0  0  0  0  0  0  0  0  0  0  0
  -20.4620   19.1540  -26.4010 N   0  0  0  0  0  0  0  0  0  0  0  0
  -21.2530   18.5140  -26.4020 H   0  0  0  0  0  0  0  0  0  0  0  0
  -19.5160   19.0810  -25.3880 C   0  0  0  0  0  0  0  0  0  0  0  0
  -18.5090   19.7750  -25.3080 O   0  0  0  0  0  0  0  0  0  0  0  0
  -19.8570   18.0390  -24.3800 C   0  0  0  0  0  0  0  0  0  0  0  0
  -19.7400   16.7410  -24.6900 C   0  0  0  0  0  0  0  0  0  0  0  0
  -20.0520   15.6850  -23.7690 C   0  0  0  0  0  0  0  0  0  0  0  0
  -20.2300   14.2960  -24.2650 C   0  0  0  0  0  0  0  0  0  0  0  0
  -20.1220   13.9970  -25.4510 O   0  0  0  0  0  0  0  0  0  0  0  0
  -20.5280   13.3870  -23.2660 N   0  0  0  0  0  0  0  0  0  0  0  0
  -20.6660   12.4140  -23.5190 H   0  0  0  0  0  0  0  0  0  0  0  0
  -20.6410   13.7610  -21.9460 C   0  0  0  0  0  0  0  0  0  0  0  0
  -20.4880   14.9650  -21.5030 N   0  0  0  0  0  0  0  0  0  0  0  0
  -20.1910   15.9110  -22.4540 C   0  0  0  0  0  0  0  0  0  0  0  0
  1  7  1  0  0  0  0
  1 28  1  1  0  0  0
  2  3  2  0  0  0  0
  4  3  1  0  0  0  0
  4 10  2  0  0  0  0
  5  4  1  0  0  0  0
  6  5  2  0  0  0  0
  6  7  1  0  0  0  0
  7  8  2  0  0  0  0
  8 10  1  0  0  0  0
  9 11  2  0  0  0  0
  9  5  1  0  0  0  0
 11  2  1  0  0  0  0
 12  1  1  0  0  0  0
 13 12  1  0  0  0  0
 14 12  1  0  0  0  0
 14 15  2  0  0  0  0
 16 14  1  0  0  0  0
 17 16  2  0  0  0  0
 18 17  1  0  0  0  0
 19 20  2  0  0  0  0
 19 18  1  0  0  0  0
 21 19  1  0  0  0  0
 22 21  1  0  0  0  0
 23 21  1  0  0  0  0
 23 25  1  0  0  0  0
 24 23  2  0  0  0  0
 25 27  1  0  0  0  0
 26 25  1  0  0  0  0
 27 18  2  0  0  0  0
 28 29  1  0  0  0  0
 29 31  1  0  0  0  0
 30 29  1  0  0  0  0
 31 32  2  0  0  0  0
 31 33  1  0  0  0  0
 34 33  2  0  0  0  0
 34 35  1  0  0  0  0
 35 42  2  0  0  0  0
 36 35  1  0  0  0  0
 36 38  1  0  0  0  0
 37 36  2  0  0  0  0
 38 40  1  0  0  0  0
 39 38  1  0  0  0  0
 40 41  2  0  0  0  0
 42 41  1  0  0  0  0
M  END
>  <ADSCOR>
   -8.55

$$$$
93
 OpenBabel08042116023D

 40 43  0  0  1  0  0  0  0  0999 V2000
  -22.5840   12.6640  -29.1280 C   0  0  0  0  0  0  0  0  0  0  0  0
  -22.6900   13.5240  -28.0340 C   0  0  0  0  0  0  0  0  0  0  0  0
  -21.7780   14.5600  -27.9230 C   0  0  0  0  0  0  0  0  0  0  0  0
  -21.7170   15.6210  -26.8660 C   0  0  0  0  0  0  0  0  0  0  0  0
  -20.2850   16.1520  -27.0690 C   0  0  1  0  0  0  0  0  0  0  0  0
  -19.9480   15.9590  -28.5680 C   0  0  1  0  0  0  0  0  0  0  0  0
  -20.7820   14.7540  -28.8890 C   0  0  0  0  0  0  0  0  0  0  0  0
  -20.6750   13.9080  -29.9800 C   0  0  0  0  0  0  0  0  0  0  0  0
  -21.5830   12.8530  -30.0940 C   0  0  0  0  0  0  0  0  0  0  0  0
  -20.1260   17.4970  -26.5900 N   0  0  0  0  0  0  0  0  0  0  0  0
  -20.7290   17.8090  -25.8300 H   0  0  0  0  0  0  0  0  0  0  0  0
  -19.1610   18.3580  -27.0970 C   0  0  0  0  0  0  0  0  0  0  0  0
  -18.3600   18.0790  -27.9820 O   0  0  0  0  0  0  0  0  0  0  0  0
  -19.1960   19.6910  -26.4340 C   0  0  0  0  0  0  0  0  0  0  0  0
  -18.0960   20.4550  -26.4080 C   0  0  0  0  0  0  0  0  0  0  0  0
  -18.0580   21.7490  -25.7860 C   0  0  0  0  0  0  0  0  0  0  0  0
  -16.8040   22.5440  -25.8050 C   0  0  0  0  0  0  0  0  0  0  0  0
  -15.7740   22.1430  -26.3380 O   0  0  0  0  0  0  0  0  0  0  0  0
  -16.9150   23.7680  -25.1700 N   0  0  0  0  0  0  0  0  0  0  0  0
  -16.0940   24.3660  -25.1440 H   0  0  0  0  0  0  0  0  0  0  0  0
  -18.0880   24.1920  -24.5790 C   0  0  0  0  0  0  0  0  0  0  0  0
  -19.1840   23.5000  -24.5610 N   0  0  0  0  0  0  0  0  0  0  0  0
  -18.0350   25.5460  -23.9320 C   0  0  0  0  0  0  0  0  0  0  0  0
  -19.1310   22.2750  -25.1780 C   0  0  0  0  0  0  0  0  0  0  0  0
  -20.3100   17.0810  -29.3940 N   0  0  0  0  0  0  0  0  0  0  0  0
  -19.5610   17.6660  -29.7590 H   0  0  0  0  0  0  0  0  0  0  0  0
  -21.6270   17.3570  -29.7330 C   0  0  0  0  0  0  0  0  0  0  0  0
  -22.6020   16.7020  -29.3820 O   0  0  0  0  0  0  0  0  0  0  0  0
  -21.7400   18.5650  -30.5970 C   0  0  0  0  0  0  0  0  0  0  0  0
  -22.7660   18.6880  -31.4490 C   0  0  0  0  0  0  0  0  0  0  0  0
  -22.9370   19.8230  -32.3110 C   0  0  0  0  0  0  0  0  0  0  0  0
  -21.7420   20.4990  -32.9070 C   0  0  0  0  0  0  0  0  0  0  0  0
  -20.5990   20.1100  -32.6840 O   0  0  0  0  0  0  0  0  0  0  0  0
  -22.0290   21.5860  -33.7240 N   0  0  0  0  0  0  0  0  0  0  0  0
  -21.2370   22.0670  -34.1420 H   0  0  0  0  0  0  0  0  0  0  0  0
  -23.2980   22.0840  -34.0250 C   0  0  0  0  0  0  0  0  0  0  0  0
  -23.4750   23.0550  -34.7610 O   0  0  0  0  0  0  0  0  0  0  0  0
  -24.3380   21.3920  -33.4270 N   0  0  0  0  0  0  0  0  0  0  0  0
  -25.2880   21.7010  -33.6050 H   0  0  0  0  0  0  0  0  0  0  0  0
  -24.1480   20.3110  -32.6080 C   0  0  0  0  0  0  0  0  0  0  0  0
  1  2  2  0  0  0  0
  2  3  1  0  0  0  0
  3  4  1  0  0  0  0
  5  4  1  0  0  0  0
  5 10  1  6  0  0  0
  6 25  1  6  0  0  0
  6  5  1  0  0  0  0
  7  6  1  0  0  0  0
  7  3  2  0  0  0  0
  8  7  1  0  0  0  0
  9  8  2  0  0  0  0
  9  1  1  0  0  0  0
 10 11  1  0  0  0  0
 12 10  1  0  0  0  0
 12 14  1  0  0  0  0
 13 12  2  0  0  0  0
 14 15  2  0  0  0  0
 15 16  1  0  0  0  0
 16 24  2  0  0  0  0
 17 16  1  0  0  0  0
 17 19  1  0  0  0  0
 18 17  2  0  0  0  0
 19 20  1  0  0  0  0
 19 21  1  0  0  0  0
 21 22  2  0  0  0  0
 21 23  1  0  0  0  0
 24 22  1  0  0  0  0
 26 25  1  0  0  0  0
 27 25  1  0  0  0  0
 27 28  2  0  0  0  0
 29 27  1  0  0  0  0
 30 29  2  0  0  0  0
 31 30  1  0  0  0  0
 32 33  2  0  0  0  0
 32 31  1  0  0  0  0
 34 32  1  0  0  0  0
 35 34  1  0  0  0  0
 36 34  1  0  0  0  0
 36 38  1  0  0  0  0
 37 36  2  0  0  0  0
 38 40  1  0  0  0  0
 39 38  1  0  0  0  0
 40 31  2  0  0  0  0
M  END
>  <ADSCOR>
   -9.52

$$$$
94
 OpenBabel08042116023D

 37 40  0  0  1  0  0  0  0  0999 V2000
  -19.2400   14.1250  -21.9670 C   0  0  0  0  0  0  0  0  0  0  0  0
  -19.1540   14.0260  -23.3560 C   0  0  0  0  0  0  0  0  0  0  0  0
  -19.8210   14.9650  -24.1240 C   0  0  0  0  0  0  0  0  0  0  0  0
  -19.8460   15.0820  -25.6170 C   0  0  0  0  0  0  0  0  0  0  0  0
  -21.0630   16.0050  -25.8180 C   0  0  1  0  0  0  0  0  0  0  0  0
  -21.1470   16.9080  -24.5630 C   0  0  1  0  0  0  0  0  0  0  0  0
  -20.5520   16.0010  -23.5260 C   0  0  0  0  0  0  0  0  0  0  0  0
  -20.6360   16.1090  -22.1480 C   0  0  0  0  0  0  0  0  0  0  0  0
  -19.9760   15.1580  -21.3660 C   0  0  0  0  0  0  0  0  0  0  0  0
  -21.0100   16.7190  -27.0640 N   0  0  0  0  0  0  0  0  0  0  0  0
  -21.8240   16.6750  -27.6760 H   0  0  0  0  0  0  0  0  0  0  0  0
  -19.9160   17.4890  -27.4340 C   0  0  0  0  0  0  0  0  0  0  0  0
  -18.9010   17.6450  -26.7630 O   0  0  0  0  0  0  0  0  0  0  0  0
  -20.1050   18.1310  -28.7640 C   0  0  0  0  0  0  0  0  0  0  0  0
  -19.9920   19.4590  -28.8910 C   0  0  0  0  0  0  0  0  0  0  0  0
  -20.1630   20.1430  -30.1430 C   0  0  0  0  0  0  0  0  0  0  0  0
  -20.2400   21.6280  -30.1720 C   0  0  0  0  0  0  0  0  0  0  0  0
  -20.1610   22.3150  -29.1580 O   0  0  0  0  0  0  0  0  0  0  0  0
  -20.4060   22.1450  -31.4430 N   0  0  0  0  0  0  0  0  0  0  0  0
  -20.4670   23.1530  -31.5540 H   0  0  0  0  0  0  0  0  0  0  0  0
  -20.4900   21.3410  -32.5560 C   0  0  0  0  0  0  0  0  0  0  0  0
  -20.4250   20.0510  -32.5430 N   0  0  0  0  0  0  0  0  0  0  0  0
  -20.2600   19.4800  -31.3040 C   0  0  0  0  0  0  0  0  0  0  0  0
  -20.4000   18.1330  -24.6770 N   0  0  0  0  0  0  0  0  0  0  0  0
  -19.3850   18.0720  -24.6910 H   0  0  0  0  0  0  0  0  0  0  0  0
  -21.0190   19.3690  -24.8060 C   0  0  0  0  0  0  0  0  0  0  0  0
  -22.2310   19.5550  -24.8370 O   0  0  0  0  0  0  0  0  0  0  0  0
  -20.0320   20.4790  -24.9110 C   0  0  0  0  0  0  0  0  0  0  0  0
  -18.9620   20.3530  -25.7060 C   0  0  0  0  0  0  0  0  0  0  0  0
  -17.9710   21.3820  -25.8540 C   0  0  0  0  0  0  0  0  0  0  0  0
  -18.0520   22.6150  -25.0280 C   0  0  0  0  0  0  0  0  0  0  0  0
  -18.9430   22.8030  -24.2050 O   0  0  0  0  0  0  0  0  0  0  0  0
  -17.0340   23.5150  -25.2790 N   0  0  0  0  0  0  0  0  0  0  0  0
  -17.0130   24.3860  -24.7570 H   0  0  0  0  0  0  0  0  0  0  0  0
  -16.0520   23.2690  -26.2110 C   0  0  0  0  0  0  0  0  0  0  0  0
  -15.9700   22.2010  -26.9350 N   0  0  0  0  0  0  0  0  0  0  0  0
  -16.9580   21.2690  -26.7260 C   0  0  0  0  0  0  0  0  0  0  0  0
  1  9  1  0  0  0  0
  2  1  2  0  0  0  0
  3  7  2  0  0  0  0
  3  2  1  0  0  0  0
  4  3  1  0  0  0  0
  5 10  1  6  0  0  0
  5  4  1  0  0  0  0
  5  6  1  0  0  0  0
  6 24  1  6  0  0  0
  6  7  1  0  0  0  0
  7  8  1  0  0  0  0
  8  9  2  0  0  0  0
 11 10  1  0  0  0  0
 12 10  1  0  0  0  0
 12 13  2  0  0  0  0
 14 12  1  0  0  0  0
 15 14  2  0  0  0  0
 16 15  1  0  0  0  0
 17 16  1  0  0  0  0
 17 18  2  0  0  0  0
 19 17  1  0  0  0  0
 20 19  1  0  0  0  0
 21 22  2  0  0  0  0
 21 19  1  0  0  0  0
 22 23  1  0  0  0  0
 23 16  2  0  0  0  0
 25 24  1  0  0  0  0
 26 24  1  0  0  0  0
 27 26  2  0  0  0  0
 28 26  1  0  0  0  0
 29 28  2  0  0  0  0
 30 29  1  0  0  0  0
 30 31  1  0  0  0  0
 31 32  2  0  0  0  0
 33 31  1  0  0  0  0
 33 34  1  0  0  0  0
 35 33  1  0  0  0  0
 36 37  1  0  0  0  0
 36 35  2  0  0  0  0
 37 30  2  0  0  0  0
M  END
>  <ADSCOR>
   -7.74

$$$$
95
 OpenBabel08042116023D

 38 41  0  0  1  0  0  0  0  0999 V2000
  -19.9770   15.4000  -25.2470 C   0  0  1  0  0  0  0  0  0  0  0  0
  -23.0200   13.2600  -30.5980 C   0  0  0  0  0  0  0  0  0  0  0  0
  -23.0390   14.5090  -29.9750 C   0  0  0  0  0  0  0  0  0  0  0  0
  -22.2890   14.7410  -28.8110 C   0  0  0  0  0  0  0  0  0  0  0  0
  -21.5100   13.6910  -28.2700 C   0  0  0  0  0  0  0  0  0  0  0  0
  -20.7590   13.9230  -27.1050 C   0  0  0  0  0  0  0  0  0  0  0  0
  -20.7780   15.1720  -26.4830 C   0  0  0  0  0  0  0  0  0  0  0  0
  -21.5450   16.2040  -27.0150 C   0  0  0  0  0  0  0  0  0  0  0  0
  -21.5010   12.4410  -28.9100 C   0  0  0  0  0  0  0  0  0  0  0  0
  -22.2970   15.9910  -28.1710 C   0  0  0  0  0  0  0  0  0  0  0  0
  -22.2530   12.2280  -30.0660 C   0  0  0  0  0  0  0  0  0  0  0  0
  -20.6640   16.3130  -24.3090 N   0  0  0  0  0  0  0  0  0  0  0  0
  -21.4700   15.9850  -23.8120 H   0  0  0  0  0  0  0  0  0  0  0  0
  -20.2300   17.5890  -24.1040 C   0  0  0  0  0  0  0  0  0  0  0  0
  -19.2700   18.1490  -24.6230 O   0  0  0  0  0  0  0  0  0  0  0  0
  -21.0790   18.2980  -23.1300 C   0  0  0  0  0  0  0  0  0  0  0  0
  -22.3890   17.7800  -22.6570 C   0  0  0  0  0  0  0  0  0  0  0  0
  -22.8480   16.7150  -23.0550 O   0  0  0  0  0  0  0  0  0  0  0  0
  -23.0130   18.6100  -21.7450 N   0  0  0  0  0  0  0  0  0  0  0  0
  -23.9150   18.3340  -21.3670 H   0  0  0  0  0  0  0  0  0  0  0  0
  -22.4530   19.7970  -21.3310 C   0  0  0  0  0  0  0  0  0  0  0  0
  -21.3150   20.2580  -21.7340 N   0  0  0  0  0  0  0  0  0  0  0  0
  -20.6490   19.4730  -22.6440 C   0  0  0  0  0  0  0  0  0  0  0  0
  -19.5930   14.1050  -24.4920 C   0  0  0  0  0  0  0  0  0  0  0  0
  -19.5920   14.3020  -23.0660 N   0  0  0  0  0  0  0  0  0  0  0  0
  -19.1260   15.1270  -22.6930 H   0  0  0  0  0  0  0  0  0  0  0  0
  -20.1950   13.4250  -22.1700 C   0  0  0  0  0  0  0  0  0  0  0  0
  -20.7890   12.3970  -22.4820 O   0  0  0  0  0  0  0  0  0  0  0  0
  -20.0290   13.8880  -20.7450 C   0  0  0  0  0  0  0  0  0  0  0  0
  -21.3480   14.1770  -20.1640 N   0  0  0  0  0  0  0  0  0  0  0  0
  -22.1560   15.0840  -20.8110 N   0  0  0  0  0  0  0  0  0  0  0  0
  -21.7940   15.5080  -21.6590 H   0  0  0  0  0  0  0  0  0  0  0  0
  -23.4020   15.4120  -20.3440 C   0  0  0  0  0  0  0  0  0  0  0  0
  -24.1490   16.2170  -20.8970 O   0  0  0  0  0  0  0  0  0  0  0  0
  -23.8340   14.7400  -19.1040 C   0  0  0  0  0  0  0  0  0  0  0  0
  -23.0420   13.8640  -18.4870 C   0  0  0  0  0  0  0  0  0  0  0  0
  -21.7020   13.5290  -19.0160 C   0  0  0  0  0  0  0  0  0  0  0  0
  -21.0100   12.7130  -18.4070 O   0  0  0  0  0  0  0  0  0  0  0  0
  1 24  1  1  0  0  0
  1 12  1  0  0  0  0
  2 11  2  0  0  0  0
  2  3  1  0  0  0  0
  3  4  2  0  0  0  0
  4  5  1  0  0  0  0
  4 10  1  0  0  0  0
  5  6  1  0  0  0  0
  6  7  2  0  0  0  0
  7  1  1  0  0  0  0
  8  7  1  0  0  0  0
  9  5  2  0  0  0  0
 10  8  2  0  0  0  0
 11  9  1  0  0  0  0
 12 14  1  0  0  0  0
 12 13  1  0  0  0  0
 14 16  1  0  0  0  0
 15 14  2  0  0  0  0
 16 17  1  0  0  0  0
 16 23  2  0  0  0  0
 17 19  1  0  0  0  0
 18 17  2  0  0  0  0
 19 20  1  0  0  0  0
 19 21  1  0  0  0  0
 22 21  2  0  0  0  0
 23 22  1  0  0  0  0
 24 25  1  0  0  0  0
 25 26  1  0  0  0  0
 25 27  1  0  0  0  0
 27 29  1  0  0  0  0
 28 27  2  0  0  0  0
 29 30  1  0  0  0  0
 30 37  1  0  0  0  0
 31 33  1  0  0  0  0
 31 30  1  0  0  0  0
 32 31  1  0  0  0  0
 33 35  1  0  0  0  0
 34 33  2  0  0  0  0
 35 36  2  0  0  0  0
 37 36  1  0  0  0  0
 37 38  2  0  0  0  0
M  END
>  <ADSCOR>
   -8.11

$$$$
96
 OpenBabel08042116023D

 41 44  0  0  1  0  0  0  0  0999 V2000
  -22.1460   15.9510  -24.5840 C   0  0  1  0  0  0  0  0  0  0  0  0
  -19.7680   13.0790  -29.9290 C   0  0  0  0  0  0  0  0  0  0  0  0
  -21.0820   13.2660  -29.5030 C   0  0  0  0  0  0  0  0  0  0  0  0
  -21.3570   13.9250  -28.2930 C   0  0  0  0  0  0  0  0  0  0  0  0
  -20.2820   14.4020  -27.5070 C   0  0  0  0  0  0  0  0  0  0  0  0
  -20.5570   15.0630  -26.2970 C   0  0  0  0  0  0  0  0  0  0  0  0
  -21.8720   15.2480  -25.8700 C   0  0  0  0  0  0  0  0  0  0  0  0
  -22.9300   14.7790  -26.6450 C   0  0  0  0  0  0  0  0  0  0  0  0
  -18.9650   14.2070  -27.9510 C   0  0  0  0  0  0  0  0  0  0  0  0
  -22.6740   14.1210  -27.8490 C   0  0  0  0  0  0  0  0  0  0  0  0
  -18.7110   13.5490  -29.1550 C   0  0  0  0  0  0  0  0  0  0  0  0
  -21.7550   15.1320  -23.4170 N   0  0  0  0  0  0  0  0  0  0  0  0
  -22.4650   14.6390  -22.9110 H   0  0  0  0  0  0  0  0  0  0  0  0
  -20.4530   15.0260  -23.0050 C   0  0  0  0  0  0  0  0  0  0  0  0
  -19.4790   15.5680  -23.5220 O   0  0  0  0  0  0  0  0  0  0  0  0
  -20.3600   14.1320  -21.7960 C   0  0  0  0  0  0  0  0  0  0  0  0
  -21.5750   14.2740  -20.9810 N   0  0  0  0  0  0  0  0  0  0  0  0
  -22.3640   13.1630  -20.7960 N   0  0  0  0  0  0  0  0  0  0  0  0
  -22.0640   12.2990  -21.2360 H   0  0  0  0  0  0  0  0  0  0  0  0
  -23.5140   13.2040  -20.0500 C   0  0  0  0  0  0  0  0  0  0  0  0
  -24.2420   12.2300  -19.8640 O   0  0  0  0  0  0  0  0  0  0  0  0
  -23.8620   14.5070  -19.4540 C   0  0  0  0  0  0  0  0  0  0  0  0
  -23.0890   15.5760  -19.6420 C   0  0  0  0  0  0  0  0  0  0  0  0
  -21.8540   15.5020  -20.4520 C   0  0  0  0  0  0  0  0  0  0  0  0
  -21.1730   16.5180  -20.5940 O   0  0  0  0  0  0  0  0  0  0  0  0
  -21.4750   17.3410  -24.4660 C   0  0  0  0  0  0  0  0  0  0  0  0
  -20.9960   17.8080  -25.7410 N   0  0  0  0  0  0  0  0  0  0  0  0
  -21.6690   17.8960  -26.4990 H   0  0  0  0  0  0  0  0  0  0  0  0
  -19.6730   18.1730  -25.9460 C   0  0  0  0  0  0  0  0  0  0  0  0
  -18.7890   18.1420  -25.0970 O   0  0  0  0  0  0  0  0  0  0  0  0
  -19.4290   18.6250  -27.3440 C   0  0  0  0  0  0  0  0  0  0  0  0
  -20.2940   19.4550  -27.9410 C   0  0  0  0  0  0  0  0  0  0  0  0
  -20.1230   19.9300  -29.2860 C   0  0  0  0  0  0  0  0  0  0  0  0
  -20.2270   18.9830  -30.4240 C   0  0  0  0  0  0  0  0  0  0  0  0
  -20.4570   17.7870  -30.2720 O   0  0  0  0  0  0  0  0  0  0  0  0
  -20.0400   19.5800  -31.6590 N   0  0  0  0  0  0  0  0  0  0  0  0
  -20.0970   18.9890  -32.4840 H   0  0  0  0  0  0  0  0  0  0  0  0
  -19.7830   20.9280  -31.7990 C   0  0  0  0  0  0  0  0  0  0  0  0
  -19.6900   21.7560  -30.8060 N   0  0  0  0  0  0  0  0  0  0  0  0
  -19.6040   21.4110  -33.2080 C   0  0  0  0  0  0  0  0  0  0  0  0
  -19.8680   21.2180  -29.5550 C   0  0  0  0  0  0  0  0  0  0  0  0
  1 26  1  6  0  0  0
  1 12  1  0  0  0  0
  2  3  2  0  0  0  0
  2 11  1  0  0  0  0
  3  4  1  0  0  0  0
  4 10  2  0  0  0  0
  4  5  1  0  0  0  0
  5  6  2  0  0  0  0
  6  7  1  0  0  0  0
  7  1  1  0  0  0  0
  8  7  2  0  0  0  0
  9  5  1  0  0  0  0
 10  8  1  0  0  0  0
 11  9  2  0  0  0  0
 12 14  1  0  0  0  0
 12 13  1  0  0  0  0
 14 16  1  0  0  0  0
 15 14  2  0  0  0  0
 16 17  1  0  0  0  0
 17 18  1  0  0  0  0
 17 24  1  0  0  0  0
 18 20  1  0  0  0  0
 19 18  1  0  0  0  0
 20 21  2  0  0  0  0
 20 22  1  0  0  0  0
 23 22  2  0  0  0  0
 24 23  1  0  0  0  0
 25 24  2  0  0  0  0
 27 26  1  0  0  0  0
 28 27  1  0  0  0  0
 29 27  1  0  0  0  0
 29 30  2  0  0  0  0
 31 29  1  0  0  0  0
 32 31  2  0  0  0  0
 33 32  1  0  0  0  0
 34 35  2  0  0  0  0
 34 33  1  0  0  0  0
 36 34  1  0  0  0  0
 37 36  1  0  0  0  0
 38 36  1  0  0  0  0
 38 39  2  0  0  0  0
 39 41  1  0  0  0  0
 40 38  1  0  0  0  0
 41 33  2  0  0  0  0
M  END
>  <ADSCOR>
   -8.52

$$$$
97
 OpenBabel08042116023D

 37 40  0  0  1  0  0  0  0  0999 V2000
  -19.4630   15.5610  -29.3460 C   0  0  1  0  0  0  0  0  0  0  0  0
  -25.2910   16.4500  -32.1230 C   0  0  0  0  0  0  0  0  0  0  0  0
  -24.7410   15.3320  -31.4960 C   0  0  0  0  0  0  0  0  0  0  0  0
  -23.4420   15.3760  -30.9630 C   0  0  0  0  0  0  0  0  0  0  0  0
  -22.6910   16.5710  -31.0680 C   0  0  0  0  0  0  0  0  0  0  0  0
  -21.3930   16.6150  -30.5340 C   0  0  0  0  0  0  0  0  0  0  0  0
  -20.8430   15.4970  -29.9070 C   0  0  0  0  0  0  0  0  0  0  0  0
  -21.5820   14.3210  -29.8040 C   0  0  0  0  0  0  0  0  0  0  0  0
  -23.2620   17.6870  -31.7020 C   0  0  0  0  0  0  0  0  0  0  0  0
  -22.8730   14.2600  -30.3280 C   0  0  0  0  0  0  0  0  0  0  0  0
  -24.5520   17.6250  -32.2270 C   0  0  0  0  0  0  0  0  0  0  0  0
  -19.1290   16.9180  -28.8640 N   0  0  0  0  0  0  0  0  0  0  0  0
  -18.2850   17.3550  -29.1800 H   0  0  0  0  0  0  0  0  0  0  0  0
  -19.9420   17.5890  -28.0000 C   0  0  0  0  0  0  0  0  0  0  0  0
  -21.0020   17.2110  -27.5150 O   0  0  0  0  0  0  0  0  0  0  0  0
  -19.3950   18.9170  -27.6660 C   0  0  0  0  0  0  0  0  0  0  0  0
  -19.5370   19.8970  -28.5710 C   0  0  0  0  0  0  0  0  0  0  0  0
  -18.9940   21.2560  -28.2660 C   0  0  0  0  0  0  0  0  0  0  0  0
  -19.1150   22.1670  -29.0800 O   0  0  0  0  0  0  0  0  0  0  0  0
  -18.3720   21.3900  -27.0350 N   0  0  0  0  0  0  0  0  0  0  0  0
  -17.9850   22.2930  -26.7770 H   0  0  0  0  0  0  0  0  0  0  0  0
  -18.2440   20.3620  -26.1340 C   0  0  0  0  0  0  0  0  0  0  0  0
  -18.7290   19.1460  -26.4060 C   0  0  0  0  0  0  0  0  0  0  0  0
  -19.1940   14.5470  -28.2080 C   0  0  0  0  0  0  0  0  0  0  0  0
  -20.1140   14.7200  -27.1140 N   0  0  0  0  0  0  0  0  0  0  0  0
  -20.7320   15.5280  -27.1240 H   0  0  0  0  0  0  0  0  0  0  0  0
  -20.1990   13.8370  -26.0450 C   0  0  0  0  0  0  0  0  0  0  0  0
  -19.5130   12.8260  -25.9090 O   0  0  0  0  0  0  0  0  0  0  0  0
  -21.2420   14.2420  -25.0220 C   0  0  0  0  0  0  0  0  0  0  0  0
  -20.5600   14.7280  -23.7920 C   0  0  0  0  0  0  0  0  0  0  0  0
  -20.3240   13.8600  -22.6060 C   0  0  0  0  0  0  0  0  0  0  0  0
  -19.6960   14.6100  -21.6410 O   0  0  0  0  0  0  0  0  0  0  0  0
  -19.5280   15.8580  -22.1970 N   0  0  0  0  0  0  0  0  0  0  0  0
  -19.1960   16.6430  -21.6580 H   0  0  0  0  0  0  0  0  0  0  0  0
  -20.6370   12.6870  -22.5070 O   0  0  0  0  0  0  0  0  0  0  0  0
  -20.0530   15.9180  -23.4480 C   0  0  0  0  0  0  0  0  0  0  0  0
  -20.0230   17.1850  -24.2220 C   0  0  0  0  0  0  0  0  0  0  0  0
  1 12  1  0  0  0  0
  1 24  1  1  0  0  0
  2  3  1  0  0  0  0
  3  4  2  0  0  0  0
  4 10  1  0  0  0  0
  5  4  1  0  0  0  0
  5  6  1  0  0  0  0
  6  7  2  0  0  0  0
  7  8  1  0  0  0  0
  7  1  1  0  0  0  0
  9  5  2  0  0  0  0
 10  8  2  0  0  0  0
 11  2  2  0  0  0  0
 11  9  1  0  0  0  0
 12 14  1  0  0  0  0
 13 12  1  0  0  0  0
 14 16  1  0  0  0  0
 14 15  2  0  0  0  0
 16 23  1  0  0  0  0
 17 18  1  0  0  0  0
 17 16  2  0  0  0  0
 18 20  1  0  0  0  0
 19 18  2  0  0  0  0
 20 21  1  0  0  0  0
 20 22  1  0  0  0  0
 23 22  2  0  0  0  0
 24 25  1  0  0  0  0
 25 27  1  0  0  0  0
 26 25  1  0  0  0  0
 27 28  2  0  0  0  0
 27 29  1  0  0  0  0
 29 30  1  0  0  0  0
 30 36  2  0  0  0  0
 30 31  1  0  0  0  0
 31 35  2  0  0  0  0
 31 32  1  0  0  0  0
 33 34  1  0  0  0  0
 33 32  1  0  0  0  0
 36 33  1  0  0  0  0
 37 36  1  0  0  0  0
M  END
>  <ADSCOR>
   -9.70

$$$$
98
 OpenBabel08042116023D

 36 38  0  0  1  0  0  0  0  0999 V2000
  -21.2020   15.4060  -21.0600 C   0  0  1  0  0  0  0  0  0  0  0  0
  -25.0630   13.7780  -20.0550 C   0  0  0  0  0  0  0  0  0  0  0  0
  -24.9370   15.1300  -20.3760 C   0  0  0  0  0  0  0  0  0  0  0  0
  -23.6880   15.6560  -20.7010 C   0  0  0  0  0  0  0  0  0  0  0  0
  -22.5630   14.8320  -20.7060 C   0  0  0  0  0  0  0  0  0  0  0  0
  -22.6880   13.4800  -20.3840 C   0  0  0  0  0  0  0  0  0  0  0  0
  -23.9380   12.9530  -20.0600 C   0  0  0  0  0  0  0  0  0  0  0  0
  -20.8460   15.0760  -22.4200 N   0  0  0  0  0  0  0  0  0  0  0  0
  -21.0810   15.7470  -23.1460 H   0  0  0  0  0  0  0  0  0  0  0  0
  -20.1690   13.9120  -22.7430 C   0  0  0  0  0  0  0  0  0  0  0  0
  -19.8070   13.0550  -21.9440 O   0  0  0  0  0  0  0  0  0  0  0  0
  -19.9160   13.8050  -24.2070 C   0  0  0  0  0  0  0  0  0  0  0  0
  -20.8860   14.1090  -25.0790 C   0  0  0  0  0  0  0  0  0  0  0  0
  -20.7110   14.0260  -26.5030 C   0  0  0  0  0  0  0  0  0  0  0  0
  -21.8950   14.0730  -27.3990 C   0  0  0  0  0  0  0  0  0  0  0  0
  -23.0420   14.1830  -26.9770 O   0  0  0  0  0  0  0  0  0  0  0  0
  -21.5740   13.9820  -28.7410 N   0  0  0  0  0  0  0  0  0  0  0  0
  -22.3250   14.0070  -29.4240 H   0  0  0  0  0  0  0  0  0  0  0  0
  -20.2740   13.8600  -29.1770 C   0  0  0  0  0  0  0  0  0  0  0  0
  -19.2380   13.8170  -28.4070 N   0  0  0  0  0  0  0  0  0  0  0  0
  -19.4970   13.9040  -27.0600 C   0  0  0  0  0  0  0  0  0  0  0  0
  -21.1110   16.9250  -20.8480 C   0  0  0  0  0  0  0  0  0  0  0  0
  -20.5130   17.5950  -21.9730 N   0  0  0  0  0  0  0  0  0  0  0  0
  -19.5540   17.9250  -21.8910 H   0  0  0  0  0  0  0  0  0  0  0  0
  -21.1920   17.8080  -23.1680 C   0  0  0  0  0  0  0  0  0  0  0  0
  -22.3480   17.4580  -23.3900 O   0  0  0  0  0  0  0  0  0  0  0  0
  -20.3280   18.5390  -24.1780 C   0  0  0  0  0  0  0  0  0  0  0  0
  -20.5720   18.1010  -25.5980 C   0  0  0  0  0  0  0  0  0  0  0  0
  -21.8360   18.1740  -26.1610 C   0  0  0  0  0  0  0  0  0  0  0  0
  -22.1230   17.7990  -27.4280 N   0  0  0  0  0  0  0  0  0  0  0  0
  -21.0900   17.3290  -28.1630 C   0  0  0  0  0  0  0  0  0  0  0  0
  -19.7910   17.2180  -27.6930 C   0  0  0  0  0  0  0  0  0  0  0  0
  -19.5350   17.6130  -26.3860 C   0  0  0  0  0  0  0  0  0  0  0  0
  -18.7640   16.7200  -28.5120 N   0  0  0  0  0  0  0  0  0  0  0  0
  -18.3650   17.3100  -29.2180 H   0  0  0  0  0  0  0  0  0  0  0  0
  -18.3770   15.8150  -28.3220 H   0  0  0  0  0  0  0  0  0  0  0  0
  1 22  1  6  0  0  0
  1  5  1  0  0  0  0
  3  2  2  0  0  0  0
  4  3  1  0  0  0  0
  5  4  2  0  0  0  0
  5  6  1  0  0  0  0
  6  7  2  0  0  0  0
  7  2  1  0  0  0  0
  8  1  1  0  0  0  0
  9  8  1  0  0  0  0
 10  8  1  0  0  0  0
 10 11  2  0  0  0  0
 12 10  1  0  0  0  0
 13 12  2  0  0  0  0
 14 13  1  0  0  0  0
 15 16  2  0  0  0  0
 15 14  1  0  0  0  0
 17 15  1  0  0  0  0
 18 17  1  0  0  0  0
 19 17  1  0  0  0  0
 19 20  2  0  0  0  0
 20 21  1  0  0  0  0
 21 14  2  0  0  0  0
 23 24  1  0  0  0  0
 23 22  1  0  0  0  0
 25 23  1  0  0  0  0
 26 25  2  0  0  0  0
 27 25  1  0  0  0  0
 28 27  1  0  0  0  0
 29 28  1  0  0  0  0
 30 29  2  0  0  0  0
 31 32  2  0  0  0  0
 31 30  1  0  0  0  0
 32 33  1  0  0  0  0
 33 28  2  0  0  0  0
 34 36  1  0  0  0  0
 34 32  1  0  0  0  0
 35 34  1  0  0  0  0
M  END
>  <ADSCOR>
   -6.39

$$$$
99
 OpenBabel08042116023D

 36 38  0  0  1  0  0  0  0  0999 V2000
  -20.3430   15.2000  -24.8130 C   0  0  1  0  0  0  0  0  0  0  0  0
  -19.8790   13.7110  -20.7960 C   0  0  0  0  0  0  0  0  0  0  0  0
  -21.1470   13.7680  -21.3770 C   0  0  0  0  0  0  0  0  0  0  0  0
  -21.2960   14.2500  -22.6780 C   0  0  0  0  0  0  0  0  0  0  0  0
  -20.1790   14.6750  -23.3960 C   0  0  0  0  0  0  0  0  0  0  0  0
  -18.9120   14.6180  -22.8160 C   0  0  0  0  0  0  0  0  0  0  0  0
  -18.7620   14.1360  -21.5150 C   0  0  0  0  0  0  0  0  0  0  0  0
  -19.7000   16.4850  -24.9610 N   0  0  0  0  0  0  0  0  0  0  0  0
  -18.8840   16.6720  -24.3860 H   0  0  0  0  0  0  0  0  0  0  0  0
  -20.1360   17.4250  -25.8770 C   0  0  0  0  0  0  0  0  0  0  0  0
  -21.0860   17.2860  -26.6440 O   0  0  0  0  0  0  0  0  0  0  0  0
  -19.3080   18.6620  -25.8420 C   0  0  0  0  0  0  0  0  0  0  0  0
  -18.9100   19.2360  -26.9850 C   0  0  0  0  0  0  0  0  0  0  0  0
  -18.1100   20.4280  -27.0230 C   0  0  0  0  0  0  0  0  0  0  0  0
  -18.4820   21.5430  -27.9320 C   0  0  0  0  0  0  0  0  0  0  0  0
  -19.4620   21.4960  -28.6690 O   0  0  0  0  0  0  0  0  0  0  0  0
  -17.6210   22.6220  -27.8620 N   0  0  0  0  0  0  0  0  0  0  0  0
  -17.8030   23.4290  -28.4520 H   0  0  0  0  0  0  0  0  0  0  0  0
  -16.5320   22.6370  -27.0220 C   0  0  0  0  0  0  0  0  0  0  0  0
  -16.1980   21.6740  -26.2270 N   0  0  0  0  0  0  0  0  0  0  0  0
  -17.0190   20.5730  -26.2540 C   0  0  0  0  0  0  0  0  0  0  0  0
  -19.8240   14.2260  -25.8820 C   0  0  0  0  0  0  0  0  0  0  0  0
  -19.9860   14.7480  -27.2150 N   0  0  0  0  0  0  0  0  0  0  0  0
  -20.8120   15.3060  -27.4170 H   0  0  0  0  0  0  0  0  0  0  0  0
  -19.0710   14.5290  -28.2400 C   0  0  0  0  0  0  0  0  0  0  0  0
  -18.0360   13.8770  -28.1340 O   0  0  0  0  0  0  0  0  0  0  0  0
  -19.5060   15.1940  -29.5220 C   0  0  0  0  0  0  0  0  0  0  0  0
  -20.8840   14.7940  -29.8420 N   0  0  0  0  0  0  0  0  0  0  0  0
  -21.1780   13.4510  -29.8700 N   0  0  0  0  0  0  0  0  0  0  0  0
  -20.4230   12.8040  -29.6680 H   0  0  0  0  0  0  0  0  0  0  0  0
  -22.4370   12.9870  -30.1570 C   0  0  0  0  0  0  0  0  0  0  0  0
  -22.7350   11.7960  -30.1880 O   0  0  0  0  0  0  0  0  0  0  0  0
  -23.4620   14.0110  -30.4370 C   0  0  0  0  0  0  0  0  0  0  0  0
  -23.1620   15.3090  -30.4070 C   0  0  0  0  0  0  0  0  0  0  0  0
  -21.7960   15.7790  -30.0940 C   0  0  0  0  0  0  0  0  0  0  0  0
  -21.5710   16.9890  -30.0790 O   0  0  0  0  0  0  0  0  0  0  0  0
  1 22  1  6  0  0  0
  1  5  1  0  0  0  0
  3  2  1  0  0  0  0
  4  3  2  0  0  0  0
  5  6  2  0  0  0  0
  5  4  1  0  0  0  0
  6  7  1  0  0  0  0
  7  2  2  0  0  0  0
  8  1  1  0  0  0  0
  8  9  1  0  0  0  0
 10 12  1  0  0  0  0
 10  8  1  0  0  0  0
 11 10  2  0  0  0  0
 13 12  2  0  0  0  0
 14 13  1  0  0  0  0
 14 21  2  0  0  0  0
 15 17  1  0  0  0  0
 15 14  1  0  0  0  0
 16 15  2  0  0  0  0
 17 19  1  0  0  0  0
 18 17  1  0  0  0  0
 19 20  2  0  0  0  0
 21 20  1  0  0  0  0
 23 22  1  0  0  0  0
 24 23  1  0  0  0  0
 25 26  2  0  0  0  0
 25 23  1  0  0  0  0
 27 25  1  0  0  0  0
 28 27  1  0  0  0  0
 29 28  1  0  0  0  0
 29 30  1  0  0  0  0
 31 29  1  0  0  0  0
 32 31  2  0  0  0  0
 33 34  2  0  0  0  0
 33 31  1  0  0  0  0
 34 35  1  0  0  0  0
 35 36  2  0  0  0  0
 35 28  1  0  0  0  0
M  END
>  <ADSCOR>
   -8.95

$$$$
