0
 OpenBabel08042114533D

 38 41  0  0  1  0  0  0  0  0999 V2000
  -20.1360   18.9670  -29.6900 C   0  0  1  0  0  3  0  0  0  0  0  0
  -22.0810   12.7570  -29.3380 C   0  0  0  0  0  3  0  0  0  0  0  0
  -20.9180   13.3760  -28.8790 C   0  0  0  0  0  3  0  0  0  0  0  0
  -20.7140   14.7520  -29.0720 C   0  0  0  0  0  0  0  0  0  0  0  0
  -21.7040   15.5100  -29.7410 C   0  0  0  0  0  0  0  0  0  0  0  0
  -21.5000   16.8870  -29.9350 C   0  0  0  0  0  3  0  0  0  0  0  0
  -20.3370   17.5060  -29.4750 C   0  0  0  0  0  0  0  0  0  0  0  0
  -19.3630   16.7590  -28.8180 C   0  0  0  0  0  3  0  0  0  0  0  0
  -22.8690   14.8710  -30.1960 C   0  0  0  0  0  3  0  0  0  0  0  0
  -19.5490   15.3910  -28.6170 C   0  0  0  0  0  3  0  0  0  0  0  0
  -23.0540   13.5030  -29.9960 C   0  0  0  0  0  3  0  0  0  0  0  0
  -21.2540   19.5670  -30.4490 N   0  0  0  0  0  0  0  0  0  0  0  0
  -22.1700   19.5780  -30.0430 H   0  0  0  0  0  0  0  0  0  0  0  0
  -21.0700   20.1060  -31.6880 C   0  0  0  0  0  0  0  0  0  0  0  0
  -20.0270   20.1780  -32.3300 O   0  0  0  0  0  0  0  0  0  0  0  0
  -22.3300   20.6370  -32.2390 C   0  0  0  0  0  0  0  0  0  0  0  0
  -22.2500   21.6590  -33.1040 C   0  0  0  0  0  3  0  0  0  0  0  0
  -23.5080   22.2220  -33.6830 C   0  0  0  0  0  0  0  0  0  0  0  0
  -23.4590   23.1590  -34.4780 O   0  0  0  0  0  0  0  0  0  0  0  0
  -24.6840   21.6210  -33.2610 N   0  0  0  0  0  0  0  0  0  0  0  0
  -25.5680   21.9650  -33.6250 H   0  0  0  0  0  0  0  0  0  0  0  0
  -24.7250   20.5750  -32.3730 C   0  0  0  0  0  3  0  0  0  0  0  0
  -23.6000   20.0700  -31.8540 C   0  0  0  0  0  3  0  0  0  0  0  0
  -19.9260   19.7760  -28.3880 C   0  0  0  0  0  2  0  0  0  0  0  0
  -20.6930   19.2350  -27.2970 N   0  0  0  0  0  0  0  0  0  0  0  0
  -21.6670   18.9910  -27.4660 H   0  0  0  0  0  0  0  0  0  0  0  0
  -20.1740   19.0270  -26.0230 C   0  0  0  0  0  0  0  0  0  0  0  0
  -19.0200   19.2760  -25.6830 O   0  0  0  0  0  0  0  0  0  0  0  0
  -21.2090   18.4550  -25.0890 C   0  0  0  0  0  2  0  0  0  0  0  0
  -21.0130   17.0040  -24.9660 N   0  0  0  0  0  0  0  0  0  0  0  0
  -20.0690   16.5500  -24.0740 N   0  0  0  0  0  0  0  0  0  0  0  0
  -19.5540   17.2480  -23.5460 H   0  0  0  0  0  0  0  0  0  0  0  0
  -19.8210   15.2150  -23.8910 C   0  0  0  0  0  0  0  0  0  0  0  0
  -18.9870   14.7760  -23.1030 O   0  0  0  0  0  0  0  0  0  0  0  0
  -20.6230   14.2830  -24.7080 C   0  0  0  0  0  3  0  0  0  0  0  0
  -21.5330   14.7350  -25.5690 C   0  0  0  0  0  3  0  0  0  0  0  0
  -21.7800   16.1830  -25.7440 C   0  0  0  0  0  0  0  0  0  0  0  0
  -22.6320   16.5480  -26.5520 O   0  0  0  0  0  0  0  0  0  0  0  0
  1  7  1  0  0  0  0
  1 24  1  1  0  0  0
  2  3  1  0  0  0  0
  4  3  2  0  0  0  0
  4 10  1  0  0  0  0
  5  4  1  0  0  0  0
  6  5  1  0  0  0  0
  6  7  2  0  0  0  0
  7  8  1  0  0  0  0
  8 10  2  0  0  0  0
  9 11  1  0  0  0  0
  9  5  2  0  0  0  0
 11  2  2  0  0  0  0
 12 13  1  0  0  0  0
 12  1  1  0  0  0  0
 14 12  1  0  0  0  0
 15 14  2  0  0  0  0
 16 23  1  0  0  0  0
 16 14  1  0  0  0  0
 17 16  2  0  0  0  0
 18 20  1  0  0  0  0
 18 17  1  0  0  0  0
 19 18  2  0  0  0  0
 20 22  1  0  0  0  0
 21 20  1  0  0  0  0
 22 23  2  0  0  0  0
 24 25  1  0  0  0  0
 25 27  1  0  0  0  0
 26 25  1  0  0  0  0
 27 28  2  0  0  0  0
 27 29  1  0  0  0  0
 29 30  1  0  0  0  0
 30 31  1  0  0  0  0
 31 33  1  0  0  0  0
 31 32  1  0  0  0  0
 33 34  2  0  0  0  0
 35 33  1  0  0  0  0
 36 35  2  0  0  0  0
 37 36  1  0  0  0  0
 37 30  1  0  0  0  0
 38 37  2  0  0  0  0
M  END
>  <VSCORE>
 -9.0

>  <MODEL>
1

>  <TORSDO>
F 7

$$$$
10
 OpenBabel08042114533D

 38 41  0  0  1  0  0  0  0  0999 V2000
  -20.5520   19.1500  -29.4040 C   0  0  1  0  0  3  0  0  0  0  0  0
  -21.8830   12.7700  -29.5170 C   0  0  0  0  0  3  0  0  0  0  0  0
  -20.7280   13.4550  -29.1350 C   0  0  0  0  0  3  0  0  0  0  0  0
  -20.6730   14.8570  -29.1970 C   0  0  0  0  0  0  0  0  0  0  0  0
  -21.8040   15.5740  -29.6520 C   0  0  0  0  0  0  0  0  0  0  0  0
  -21.7490   16.9760  -29.7140 C   0  0  0  0  0  3  0  0  0  0  0  0
  -20.5940   17.6610  -29.3330 C   0  0  0  0  0  0  0  0  0  0  0  0
  -19.4820   16.9550  -28.8860 C   0  0  0  0  0  3  0  0  0  0  0  0
  -22.9590   14.8700  -30.0320 C   0  0  0  0  0  3  0  0  0  0  0  0
  -19.5190   15.5620  -28.8180 C   0  0  0  0  0  3  0  0  0  0  0  0
  -22.9960   13.4770  -29.9630 C   0  0  0  0  0  3  0  0  0  0  0  0
  -21.5940   19.6850  -30.3060 N   0  0  0  0  0  0  0  0  0  0  0  0
  -22.5570   19.6010  -30.0430 H   0  0  0  0  0  0  0  0  0  0  0  0
  -21.2780   20.2890  -31.4860 C   0  0  0  0  0  0  0  0  0  0  0  0
  -20.1630   20.4760  -31.9610 O   0  0  0  0  0  0  0  0  0  0  0  0
  -22.4850   20.7340  -32.2060 C   0  0  0  0  0  0  0  0  0  0  0  0
  -22.3630   21.7710  -33.0470 C   0  0  0  0  0  3  0  0  0  0  0  0
  -23.5670   22.2500  -33.7930 C   0  0  0  0  0  0  0  0  0  0  0  0
  -23.4780   23.1980  -34.5690 O   0  0  0  0  0  0  0  0  0  0  0  0
  -24.7410   21.5570  -33.5440 N   0  0  0  0  0  0  0  0  0  0  0  0
  -25.5890   21.8410  -34.0250 H   0  0  0  0  0  0  0  0  0  0  0  0
  -24.8270   20.4990  -32.6740 C   0  0  0  0  0  3  0  0  0  0  0  0
  -23.7510   20.0710  -32.0050 C   0  0  0  0  0  3  0  0  0  0  0  0
  -20.6710   19.8530  -28.0310 C   0  0  0  0  0  2  0  0  0  0  0  0
  -20.5540   18.9180  -26.9430 N   0  0  0  0  0  0  0  0  0  0  0  0
  -21.2810   18.2130  -26.8390 H   0  0  0  0  0  0  0  0  0  0  0  0
  -19.4730   18.9250  -26.0730 C   0  0  0  0  0  0  0  0  0  0  0  0
  -18.5250   19.7020  -26.1270 O   0  0  0  0  0  0  0  0  0  0  0  0
  -19.5800   17.8590  -25.0380 C   0  0  0  0  0  3  0  0  0  0  0  0
  -20.4310   16.8400  -25.2110 C   0  0  0  0  0  3  0  0  0  0  0  0
  -20.5870   15.7800  -24.2560 C   0  0  0  0  0  0  0  0  0  0  0  0
  -21.8500   15.6570  -23.4830 C   0  0  0  0  0  0  0  0  0  0  0  0
  -22.7900   16.4330  -23.6220 O   0  0  0  0  0  0  0  0  0  0  0  0
  -21.8550   14.5920  -22.6010 N   0  0  0  0  0  0  0  0  0  0  0  0
  -22.6810   14.4350  -22.0310 H   0  0  0  0  0  0  0  0  0  0  0  0
  -20.7800   13.7410  -22.4730 C   0  0  0  0  0  3  0  0  0  0  0  0
  -19.6770   13.8370  -23.1400 N   0  0  0  0  0  0  0  0  0  0  0  0
  -19.6160   14.8800  -24.0320 C   0  0  0  0  0  3  0  0  0  0  0  0
  1  7  1  0  0  0  0
  1 24  1  1  0  0  0
  2  3  1  0  0  0  0
  4  3  2  0  0  0  0
  4 10  1  0  0  0  0
  5  4  1  0  0  0  0
  6  5  1  0  0  0  0
  6  7  2  0  0  0  0
  7  8  1  0  0  0  0
  8 10  2  0  0  0  0
  9 11  1  0  0  0  0
  9  5  2  0  0  0  0
 11  2  2  0  0  0  0
 12 13  1  0  0  0  0
 12  1  1  0  0  0  0
 14 12  1  0  0  0  0
 15 14  2  0  0  0  0
 16 23  1  0  0  0  0
 16 14  1  0  0  0  0
 17 16  2  0  0  0  0
 18 20  1  0  0  0  0
 18 17  1  0  0  0  0
 19 18  2  0  0  0  0
 20 22  1  0  0  0  0
 21 20  1  0  0  0  0
 22 23  2  0  0  0  0
 24 25  1  0  0  0  0
 25 26  1  0  0  0  0
 25 27  1  0  0  0  0
 27 29  1  0  0  0  0
 28 27  2  0  0  0  0
 30 29  2  0  0  0  0
 30 31  1  0  0  0  0
 31 38  2  0  0  0  0
 31 32  1  0  0  0  0
 32 34  1  0  0  0  0
 33 32  2  0  0  0  0
 34 36  1  0  0  0  0
 34 35  1  0  0  0  0
 37 36  2  0  0  0  0
 38 37  1  0  0  0  0
M  END
>  <VSCORE>
 -9.3

>  <MODEL>
1

>  <TORSDO>
F 7

$$$$
11
 OpenBabel08042114533D

 37 40  0  0  1  0  0  0  0  0999 V2000
  -23.1460   19.4240  -17.6640 C   0  0  0  0  0  3  0  0  0  0  0  0
  -23.0060   18.1580  -18.2350 C   0  0  0  0  0  3  0  0  0  0  0  0
  -22.3340   18.0530  -19.4420 C   0  0  0  0  0  0  0  0  0  0  0  0
  -22.0960   16.8140  -20.2490 C   0  0  0  0  0  2  0  0  0  0  0  0
  -20.9560   17.2860  -21.1700 C   0  0  2  0  0  3  0  0  0  0  0  0
  -21.1810   18.8010  -21.3980 C   0  0  1  0  0  3  0  0  0  0  0  0
  -21.8140   19.1830  -20.0870 C   0  0  0  0  0  0  0  0  0  0  0  0
  -21.9620   20.4450  -19.5290 C   0  0  0  0  0  3  0  0  0  0  0  0
  -22.6280   20.5590  -18.3050 C   0  0  0  0  0  3  0  0  0  0  0  0
  -20.8950   16.5410  -22.3970 N   0  0  0  0  0  0  0  0  0  0  0  0
  -21.4400   16.8790  -23.1890 H   0  0  0  0  0  0  0  0  0  0  0  0
  -20.0950   15.4170  -22.5450 C   0  0  0  0  0  0  0  0  0  0  0  0
  -19.3720   14.9430  -21.6740 O   0  0  0  0  0  0  0  0  0  0  0  0
  -20.2010   14.8270  -23.9080 C   0  0  0  0  0  3  0  0  0  0  0  0
  -21.2240   15.1620  -24.7060 C   0  0  0  0  0  3  0  0  0  0  0  0
  -21.3890   14.6320  -26.0310 C   0  0  0  0  0  0  0  0  0  0  0  0
  -22.6600   14.8550  -26.7660 C   0  0  0  0  0  0  0  0  0  0  0  0
  -23.5990   15.4830  -26.2870 O   0  0  0  0  0  0  0  0  0  0  0  0
  -22.6760   14.2880  -28.0270 N   0  0  0  0  0  0  0  0  0  0  0  0
  -23.5160   14.4020  -28.5870 H   0  0  0  0  0  0  0  0  0  0  0  0
  -21.6020   13.5880  -28.5380 C   0  0  0  0  0  0  0  0  0  0  0  0
  -20.4910   13.3900  -27.8990 N   0  0  0  0  0  0  0  0  0  0  0  0
  -21.7860   13.0380  -29.9230 C   0  0  0  0  0  1  0  0  0  0  0  0
  -20.4210   13.9320  -26.6380 C   0  0  0  0  0  3  0  0  0  0  0  0
  -19.8910   19.5380  -21.7290 C   0  0  0  0  0  2  0  0  0  0  0  0
  -20.0650   20.3180  -22.9100 N   0  0  0  0  0  0  0  0  0  0  0  0
  -20.1410   21.3350  -22.8100 H   0  0  0  0  0  0  0  0  0  0  0  0
  -20.1390   19.7770  -24.1980 C   0  0  0  0  0  0  0  0  0  0  0  0
  -20.0630   18.5790  -24.4550 O   0  0  0  0  0  0  0  0  0  0  0  0
  -20.3290   20.8410  -25.2490 C   0  0  0  0  0  2  0  0  0  0  0  0
  -19.0300   21.4480  -25.5760 N   0  0  0  0  0  0  0  0  0  0  0  0
  -18.6860   22.6560  -24.9690 C   0  0  0  0  0  0  0  0  0  0  0  0
  -19.3760   23.2820  -24.1660 O   0  0  0  0  0  0  0  0  0  0  0  0
  -17.3520   23.2070  -25.3560 C   0  0  0  0  0  3  0  0  0  0  0  0
  -16.5800   22.5470  -26.2250 C   0  0  0  0  0  3  0  0  0  0  0  0
  -17.0140   21.3040  -26.8050 C   0  0  0  0  0  3  0  0  0  0  0  0
  -18.2060   20.7980  -26.4710 C   0  0  0  0  0  3  0  0  0  0  0  0
  2  1  1  0  0  0  0
  3  2  2  0  0  0  0
  4  3  1  0  0  0  0
  5 10  1  6  0  0  0
  5  4  1  0  0  0  0
  6 25  1  1  0  0  0
  6  5  1  0  0  0  0
  6  7  1  0  0  0  0
  7  8  2  0  0  0  0
  7  3  1  0  0  0  0
  8  9  1  0  0  0  0
  9  1  2  0  0  0  0
 11 10  1  0  0  0  0
 12 10  1  0  0  0  0
 12 13  2  0  0  0  0
 14 12  1  0  0  0  0
 15 14  2  0  0  0  0
 16 15  1  0  0  0  0
 17 18  2  0  0  0  0
 17 16  1  0  0  0  0
 19 17  1  0  0  0  0
 20 19  1  0  0  0  0
 21 19  1  0  0  0  0
 21 22  2  0  0  0  0
 22 24  1  0  0  0  0
 23 21  1  0  0  0  0
 24 16  2  0  0  0  0
 26 27  1  0  0  0  0
 26 25  1  0  0  0  0
 28 26  1  0  0  0  0
 29 28  2  0  0  0  0
 30 28  1  0  0  0  0
 31 30  1  0  0  0  0
 31 32  1  0  0  0  0
 32 33  2  0  0  0  0
 34 32  1  0  0  0  0
 35 34  2  0  0  0  0
 36 37  2  0  0  0  0
 36 35  1  0  0  0  0
 37 31  1  0  0  0  0
M  END
>  <VSCORE>
 -7.9

>  <MODEL>
1

>  <TORSDO>
F 7

$$$$
12
 OpenBabel08042114533D

 38 41  0  0  1  0  0  0  0  0999 V2000
  -20.1240   18.9610  -29.6940 C   0  0  1  0  0  3  0  0  0  0  0  0
  -22.0900   12.7570  -29.3460 C   0  0  0  0  0  3  0  0  0  0  0  0
  -20.9250   13.3720  -28.8860 C   0  0  0  0  0  3  0  0  0  0  0  0
  -20.7170   14.7470  -29.0790 C   0  0  0  0  0  0  0  0  0  0  0  0
  -21.7030   15.5100  -29.7480 C   0  0  0  0  0  0  0  0  0  0  0  0
  -21.4940   16.8860  -29.9400 C   0  0  0  0  0  3  0  0  0  0  0  0
  -20.3290   17.5000  -29.4800 C   0  0  0  0  0  0  0  0  0  0  0  0
  -19.3590   16.7500  -28.8230 C   0  0  0  0  0  3  0  0  0  0  0  0
  -22.8700   14.8750  -30.2040 C   0  0  0  0  0  3  0  0  0  0  0  0
  -19.5490   15.3830  -28.6230 C   0  0  0  0  0  3  0  0  0  0  0  0
  -23.0610   13.5070  -30.0040 C   0  0  0  0  0  3  0  0  0  0  0  0
  -21.2330   19.5630  -30.4650 N   0  0  0  0  0  0  0  0  0  0  0  0
  -22.1600   19.5390  -30.0850 H   0  0  0  0  0  0  0  0  0  0  0  0
  -21.0260   20.1490  -31.6780 C   0  0  0  0  0  0  0  0  0  0  0  0
  -19.9670   20.2680  -32.2860 O   0  0  0  0  0  0  0  0  0  0  0  0
  -22.2820   20.6720  -32.2460 C   0  0  0  0  0  0  0  0  0  0  0  0
  -23.6110   20.1410  -31.9170 C   0  0  0  0  0  3  0  0  0  0  0  0
  -24.7370   20.5630  -32.3890 N   0  0  0  0  0  0  0  0  0  0  0  0
  -24.6670   21.5940  -33.2680 N   0  0  0  0  0  0  0  0  0  0  0  0
  -25.5660   21.9060  -33.6220 H   0  0  0  0  0  0  0  0  0  0  0  0
  -23.5060   22.2080  -33.6820 C   0  0  0  0  0  0  0  0  0  0  0  0
  -23.4770   23.1420  -34.4790 O   0  0  0  0  0  0  0  0  0  0  0  0
  -22.2430   21.6850  -33.1110 C   0  0  0  0  0  3  0  0  0  0  0  0
  -19.9240   19.7710  -28.3910 C   0  0  0  0  0  2  0  0  0  0  0  0
  -20.6930   19.2250  -27.3030 N   0  0  0  0  0  0  0  0  0  0  0  0
  -21.6660   18.9780  -27.4770 H   0  0  0  0  0  0  0  0  0  0  0  0
  -20.1780   19.0170  -26.0280 C   0  0  0  0  0  0  0  0  0  0  0  0
  -19.0270   19.2690  -25.6830 O   0  0  0  0  0  0  0  0  0  0  0  0
  -21.2150   18.4390  -25.0990 C   0  0  0  0  0  2  0  0  0  0  0  0
  -21.0090   16.9890  -24.9710 N   0  0  0  0  0  0  0  0  0  0  0  0
  -20.0570   16.5460  -24.0830 N   0  0  0  0  0  0  0  0  0  0  0  0
  -19.5430   17.2490  -23.5610 H   0  0  0  0  0  0  0  0  0  0  0  0
  -19.7990   15.2130  -23.8960 C   0  0  0  0  0  0  0  0  0  0  0  0
  -18.9570   14.7830  -23.1110 O   0  0  0  0  0  0  0  0  0  0  0  0
  -20.6000   14.2730  -24.7030 C   0  0  0  0  0  3  0  0  0  0  0  0
  -21.5190   14.7150  -25.5610 C   0  0  0  0  0  3  0  0  0  0  0  0
  -21.7750   16.1610  -25.7400 C   0  0  0  0  0  0  0  0  0  0  0  0
  -22.6360   16.5160  -26.5450 O   0  0  0  0  0  0  0  0  0  0  0  0
  1  7  1  0  0  0  0
  1 24  1  1  0  0  0
  2  3  1  0  0  0  0
  4  3  2  0  0  0  0
  4 10  1  0  0  0  0
  5  4  1  0  0  0  0
  6  5  1  0  0  0  0
  6  7  2  0  0  0  0
  7  8  1  0  0  0  0
  8 10  2  0  0  0  0
  9 11  1  0  0  0  0
  9  5  2  0  0  0  0
 11  2  2  0  0  0  0
 12 13  1  0  0  0  0
 12  1  1  0  0  0  0
 14 12  1  0  0  0  0
 15 14  2  0  0  0  0
 16 17  1  0  0  0  0
 16 14  1  0  0  0  0
 18 17  2  0  0  0  0
 19 18  1  0  0  0  0
 20 19  1  0  0  0  0
 21 19  1  0  0  0  0
 21 23  1  0  0  0  0
 22 21  2  0  0  0  0
 23 16  2  0  0  0  0
 24 25  1  0  0  0  0
 25 27  1  0  0  0  0
 26 25  1  0  0  0  0
 27 28  2  0  0  0  0
 27 29  1  0  0  0  0
 29 30  1  0  0  0  0
 30 31  1  0  0  0  0
 31 33  1  0  0  0  0
 31 32  1  0  0  0  0
 33 34  2  0  0  0  0
 35 33  1  0  0  0  0
 36 35  2  0  0  0  0
 37 36  1  0  0  0  0
 37 30  1  0  0  0  0
 38 37  2  0  0  0  0
M  END
>  <VSCORE>
 -8.9

>  <MODEL>
1

>  <TORSDO>
F 7

$$$$
13
 OpenBabel08042114533D

 36 39  0  0  1  0  0  0  0  0999 V2000
  -22.0300   16.2320  -20.7650 C   0  0  0  0  0  3  0  0  0  0  0  0
  -21.7770   17.2910  -21.6390 C   0  0  0  0  0  3  0  0  0  0  0  0
  -21.3210   16.9960  -22.9120 C   0  0  0  0  0  0  0  0  0  0  0  0
  -21.0190   17.9540  -24.0250 C   0  0  0  0  0  2  0  0  0  0  0  0
  -20.1760   17.0620  -24.9560 C   0  0  1  0  0  3  0  0  0  0  0  0
  -20.6750   15.6100  -24.7530 C   0  0  1  0  0  3  0  0  0  0  0  0
  -21.1320   15.6700  -23.3250 C   0  0  0  0  0  0  0  0  0  0  0  0
  -21.3870   14.6150  -22.4650 C   0  0  0  0  0  3  0  0  0  0  0  0
  -21.8360   14.9030  -21.1750 C   0  0  0  0  0  3  0  0  0  0  0  0
  -20.2010   17.5150  -26.3190 N   0  0  0  0  0  0  0  0  0  0  0  0
  -20.8360   17.0510  -26.9670 H   0  0  0  0  0  0  0  0  0  0  0  0
  -19.4260   18.5780  -26.7630 C   0  0  0  0  0  0  0  0  0  0  0  0
  -18.6570   19.2320  -26.0670 O   0  0  0  0  0  0  0  0  0  0  0  0
  -19.6320   18.8570  -28.2120 C   0  0  0  0  0  3  0  0  0  0  0  0
  -20.4380   19.8550  -28.5940 C   0  0  0  0  0  3  0  0  0  0  0  0
  -20.6830   20.1780  -29.9730 C   0  0  0  0  0  0  0  0  0  0  0  0
  -20.8750   21.5940  -30.3800 C   0  0  0  0  0  0  0  0  0  0  0  0
  -20.8330   22.5250  -29.5820 O   0  0  0  0  0  0  0  0  0  0  0  0
  -21.1030   21.7510  -31.7360 N   0  0  0  0  0  0  0  0  0  0  0  0
  -21.2450   22.6880  -32.1000 H   0  0  0  0  0  0  0  0  0  0  0  0
  -21.1440   20.6820  -32.6000 C   0  0  0  0  0  3  0  0  0  0  0  0
  -20.9770   19.4470  -32.2580 N   0  0  0  0  0  0  0  0  0  0  0  0
  -20.7480   19.2300  -30.9200 C   0  0  0  0  0  3  0  0  0  0  0  0
  -21.7510   15.2370  -25.6320 N   0  0  0  0  0  0  0  0  0  0  0  0
  -22.6600   15.6740  -25.4970 H   0  0  0  0  0  0  0  0  0  0  0  0
  -21.6100   14.3090  -26.6560 C   0  0  0  0  0  0  0  0  0  0  0  0
  -20.5710   13.7100  -26.9260 O   0  0  0  0  0  0  0  0  0  0  0  0
  -22.8910   14.0870  -27.4370 C   0  0  0  0  0  2  0  0  0  0  0  0
  -22.7050   14.5700  -28.8320 C   0  0  0  0  0  0  0  0  0  0  0  0
  -22.5210   16.0080  -29.1670 C   0  0  0  0  0  0  0  0  0  0  0  0
  -22.4000   16.1210  -30.5320 O   0  0  0  0  0  0  0  0  0  0  0  0
  -22.4750   14.8340  -31.0130 N   0  0  0  0  0  0  0  0  0  0  0  0
  -22.5310   14.6350  -32.0010 H   0  0  0  0  0  0  0  0  0  0  0  0
  -22.4910   16.9300  -28.3700 O   0  0  0  0  0  0  0  0  0  0  0  0
  -22.6720   13.9400  -30.0110 C   0  0  0  0  0  0  0  0  0  0  0  0
  -22.8270   12.4920  -30.3060 C   0  0  0  0  0  1  0  0  0  0  0  0
  2  1  2  0  0  0  0
  3  2  1  0  0  0  0
  4  3  1  0  0  0  0
  5 10  1  6  0  0  0
  5  6  1  0  0  0  0
  5  4  1  0  0  0  0
  6 24  1  6  0  0  0
  6  7  1  0  0  0  0
  7  3  2  0  0  0  0
  7  8  1  0  0  0  0
  8  9  2  0  0  0  0
  9  1  1  0  0  0  0
 11 10  1  0  0  0  0
 12 10  1  0  0  0  0
 12 13  2  0  0  0  0
 14 12  1  0  0  0  0
 15 14  2  0  0  0  0
 16 15  1  0  0  0  0
 17 16  1  0  0  0  0
 17 18  2  0  0  0  0
 19 17  1  0  0  0  0
 20 19  1  0  0  0  0
 21 22  2  0  0  0  0
 21 19  1  0  0  0  0
 22 23  1  0  0  0  0
 23 16  2  0  0  0  0
 24 25  1  0  0  0  0
 26 24  1  0  0  0  0
 27 26  2  0  0  0  0
 28 26  1  0  0  0  0
 29 28  1  0  0  0  0
 30 29  1  0  0  0  0
 30 34  2  0  0  0  0
 31 30  1  0  0  0  0
 32 31  1  0  0  0  0
 32 35  1  0  0  0  0
 33 32  1  0  0  0  0
 35 29  2  0  0  0  0
 36 35  1  0  0  0  0
M  END
>  <VSCORE>
 -8.5

>  <MODEL>
1

>  <TORSDO>
F 6

$$$$
14
 OpenBabel08042114533D

 42 45  0  0  1  0  0  0  0  0999 V2000
  -20.6450   19.3220  -29.5390 C   0  0  1  0  0  3  0  0  0  0  0  0
  -21.7180   12.8970  -29.3070 C   0  0  0  0  0  3  0  0  0  0  0  0
  -20.5700   13.6400  -29.0310 C   0  0  0  0  0  3  0  0  0  0  0  0
  -20.5760   15.0400  -29.1530 C   0  0  0  0  0  0  0  0  0  0  0  0
  -21.7630   15.6930  -29.5600 C   0  0  0  0  0  0  0  0  0  0  0  0
  -21.7700   17.0930  -29.6810 C   0  0  0  0  0  3  0  0  0  0  0  0
  -20.6210   17.8360  -29.4060 C   0  0  0  0  0  0  0  0  0  0  0  0
  -19.4540   17.1940  -29.0060 C   0  0  0  0  0  3  0  0  0  0  0  0
  -22.9100   14.9300  -29.8330 C   0  0  0  0  0  3  0  0  0  0  0  0
  -19.4300   15.8040  -28.8800 C   0  0  0  0  0  3  0  0  0  0  0  0
  -22.8850   13.5400  -29.7070 C   0  0  0  0  0  3  0  0  0  0  0  0
  -21.9960   19.8200  -29.8740 N   0  0  0  0  0  0  0  0  0  0  0  0
  -22.7110   19.7910  -29.1750 H   0  0  0  0  0  0  0  0  0  0  0  0
  -22.2970   20.3180  -31.1120 C   0  0  0  0  0  0  0  0  0  0  0  0
  -21.5240   20.4150  -32.0650 O   0  0  0  0  0  0  0  0  0  0  0  0
  -23.7450   20.7580  -31.2050 C   0  0  0  0  0  2  0  0  0  0  0  0
  -24.5660   19.6330  -31.7270 C   0  0  0  0  0  0  0  0  0  0  0  0
  -23.9140   18.4540  -32.0010 N   0  0  0  0  0  0  0  0  0  0  0  0
  -22.9120   18.4120  -31.8360 H   0  0  0  0  0  0  0  0  0  0  0  0
  -24.5450   17.3210  -32.4910 C   0  0  0  0  0  0  0  0  0  0  0  0
  -23.9440   16.2730  -32.7310 O   0  0  0  0  0  0  0  0  0  0  0  0
  -25.9190   17.4640  -32.6900 N   0  0  0  0  0  0  0  0  0  0  0  0
  -26.4200   16.6560  -33.0490 H   0  0  0  0  0  0  0  0  0  0  0  0
  -26.6630   18.6070  -32.4450 C   0  0  0  0  0  0  0  0  0  0  0  0
  -27.8730   18.7000  -32.6310 O   0  0  0  0  0  0  0  0  0  0  0  0
  -25.8850   19.7560  -31.9230 C   0  0  0  0  0  3  0  0  0  0  0  0
  -20.1290   20.0780  -28.2910 C   0  0  0  0  0  2  0  0  0  0  0  0
  -20.3970   19.3490  -27.0790 N   0  0  0  0  0  0  0  0  0  0  0  0
  -21.2950   18.8780  -26.9940 H   0  0  0  0  0  0  0  0  0  0  0  0
  -19.4640   19.2420  -26.0580 C   0  0  0  0  0  0  0  0  0  0  0  0
  -18.3420   19.7360  -26.0690 O   0  0  0  0  0  0  0  0  0  0  0  0
  -19.9750   18.4350  -24.9160 C   0  0  0  0  0  3  0  0  0  0  0  0
  -20.3340   17.1580  -25.1030 C   0  0  0  0  0  3  0  0  0  0  0  0
  -20.8340   16.3230  -24.0470 C   0  0  0  0  0  0  0  0  0  0  0  0
  -20.7970   14.8460  -24.1890 C   0  0  0  0  0  0  0  0  0  0  0  0
  -20.3510   14.2880  -25.1860 O   0  0  0  0  0  0  0  0  0  0  0  0
  -21.3120   14.1730  -23.0960 N   0  0  0  0  0  0  0  0  0  0  0  0
  -21.3190   13.1570  -23.1240 H   0  0  0  0  0  0  0  0  0  0  0  0
  -21.8090   14.8280  -21.9880 C   0  0  0  0  0  0  0  0  0  0  0  0
  -21.8430   16.1180  -21.8610 N   0  0  0  0  0  0  0  0  0  0  0  0
  -22.3300   13.9460  -20.8900 C   0  0  0  0  0  1  0  0  0  0  0  0
  -21.3430   16.8390  -22.9190 C   0  0  0  0  0  3  0  0  0  0  0  0
  1  7  1  0  0  0  0
  1 27  1  1  0  0  0
  2  3  1  0  0  0  0
  4  3  2  0  0  0  0
  4 10  1  0  0  0  0
  5  4  1  0  0  0  0
  6  5  1  0  0  0  0
  6  7  2  0  0  0  0
  7  8  1  0  0  0  0
  8 10  2  0  0  0  0
  9 11  1  0  0  0  0
  9  5  2  0  0  0  0
 11  2  2  0  0  0  0
 12  1  1  0  0  0  0
 12 13  1  0  0  0  0
 14 12  1  0  0  0  0
 15 14  2  0  0  0  0
 16 14  1  0  0  0  0
 17 16  1  0  0  0  0
 18 19  1  0  0  0  0
 18 17  1  0  0  0  0
 20 18  1  0  0  0  0
 21 20  2  0  0  0  0
 22 20  1  0  0  0  0
 22 24  1  0  0  0  0
 23 22  1  0  0  0  0
 24 26  1  0  0  0  0
 25 24  2  0  0  0  0
 26 17  2  0  0  0  0
 27 28  1  0  0  0  0
 28 29  1  0  0  0  0
 28 30  1  0  0  0  0
 30 32  1  0  0  0  0
 31 30  2  0  0  0  0
 33 32  2  0  0  0  0
 33 34  1  0  0  0  0
 34 42  2  0  0  0  0
 35 34  1  0  0  0  0
 35 37  1  0  0  0  0
 36 35  2  0  0  0  0
 37 39  1  0  0  0  0
 38 37  1  0  0  0  0
 39 40  2  0  0  0  0
 39 41  1  0  0  0  0
 42 40  1  0  0  0  0
M  END
>  <VSCORE>
 -9.1

>  <MODEL>
1

>  <TORSDO>
F 8

$$$$
15
 OpenBabel08042114533D

 38 40  0  0  1  0  0  0  0  0999 V2000
  -20.3130   15.6110  -24.9600 C   0  0  1  0  0  3  0  0  0  0  0  0
  -20.2860   13.7500  -21.0750 C   0  0  0  0  0  3  0  0  0  0  0  0
  -19.0840   14.0150  -21.7300 C   0  0  0  0  0  3  0  0  0  0  0  0
  -19.0930   14.6170  -22.9870 C   0  0  0  0  0  3  0  0  0  0  0  0
  -20.3040   14.9550  -23.5900 C   0  0  0  0  0  0  0  0  0  0  0  0
  -21.5070   14.6900  -22.9350 C   0  0  0  0  0  3  0  0  0  0  0  0
  -21.4980   14.0870  -21.6770 C   0  0  0  0  0  3  0  0  0  0  0  0
  -21.4710   15.1640  -25.7440 N   0  0  0  0  0  0  0  0  0  0  0  0
  -22.3710   15.5710  -25.5530 H   0  0  0  0  0  0  0  0  0  0  0  0
  -21.3720   14.2100  -26.7290 C   0  0  0  0  0  0  0  0  0  0  0  0
  -20.3450   13.6290  -27.0710 O   0  0  0  0  0  0  0  0  0  0  0  0
  -22.7180   13.9540  -27.3560 C   0  0  0  0  0  2  0  0  0  0  0  0
  -22.6730   14.3090  -28.7830 N   0  0  0  0  0  0  0  0  0  0  0  0
  -22.6200   15.6650  -29.2450 C   0  0  0  0  0  2  0  0  0  0  0  0
  -22.5920   15.4310  -30.7390 C   0  0  0  0  0  0  0  0  0  0  0  0
  -22.5440   16.3200  -31.5770 O   0  0  0  0  0  0  0  0  0  0  0  0
  -22.6300   14.0780  -30.9730 N   0  0  0  0  0  0  0  0  0  0  0  0
  -22.6220   13.6590  -31.8940 H   0  0  0  0  0  0  0  0  0  0  0  0
  -22.6800   13.3630  -29.7930 C   0  0  0  0  0  0  0  0  0  0  0  0
  -22.7210   12.1450  -29.6900 O   0  0  0  0  0  0  0  0  0  0  0  0
  -20.2830   17.1460  -24.8960 C   0  0  0  0  0  2  0  0  0  0  0  0
  -20.1510   17.7420  -26.2060 N   0  0  0  0  0  0  0  0  0  0  0  0
  -20.7330   17.3720  -26.9520 H   0  0  0  0  0  0  0  0  0  0  0  0
  -19.3000   18.8060  -26.4490 C   0  0  0  0  0  0  0  0  0  0  0  0
  -18.5830   19.3480  -25.6140 O   0  0  0  0  0  0  0  0  0  0  0  0
  -19.3470   19.2410  -27.8720 C   0  0  0  0  0  3  0  0  0  0  0  0
  -20.5150   19.5830  -28.4280 C   0  0  0  0  0  3  0  0  0  0  0  0
  -20.6330   20.0100  -29.7970 C   0  0  0  0  0  0  0  0  0  0  0  0
  -20.5740   21.4580  -30.1440 C   0  0  0  0  0  0  0  0  0  0  0  0
  -20.4240   22.3330  -29.2970 O   0  0  0  0  0  0  0  0  0  0  0  0
  -20.7020   21.7120  -31.4980 N   0  0  0  0  0  0  0  0  0  0  0  0
  -20.6690   22.6790  -31.8050 H   0  0  0  0  0  0  0  0  0  0  0  0
  -20.8720   20.7250  -32.4600 C   0  0  0  0  0  0  0  0  0  0  0  0
  -20.9810   21.1660  -33.7520 N   0  0  0  0  0  0  0  0  0  0  0  0
  -20.9340   22.1440  -33.9230 H   0  0  0  0  0  0  0  0  0  0  0  0
  -21.1040   20.4910  -34.4710 H   0  0  0  0  0  0  0  0  0  0  0  0
  -20.9230   19.4620  -32.1420 N   0  0  0  0  0  0  0  0  0  0  0  0
  -20.8000   19.1480  -30.8120 C   0  0  0  0  0  3  0  0  0  0  0  0
  1 21  1  1  0  0  0
  1  5  1  0  0  0  0
  3  2  2  0  0  0  0
  4  3  1  0  0  0  0
  5  4  2  0  0  0  0
  5  6  1  0  0  0  0
  6  7  2  0  0  0  0
  7  2  1  0  0  0  0
  8  9  1  0  0  0  0
  8  1  1  0  0  0  0
 10  8  1  0  0  0  0
 11 10  2  0  0  0  0
 12 10  1  0  0  0  0
 13 12  1  0  0  0  0
 14 13  1  0  0  0  0
 15 14  1  0  0  0  0
 16 15  2  0  0  0  0
 17 15  1  0  0  0  0
 17 19  1  0  0  0  0
 18 17  1  0  0  0  0
 19 20  2  0  0  0  0
 19 13  1  0  0  0  0
 22 21  1  0  0  0  0
 23 22  1  0  0  0  0
 24 22  1  0  0  0  0
 24 25  2  0  0  0  0
 26 24  1  0  0  0  0
 27 26  2  0  0  0  0
 28 27  1  0  0  0  0
 29 28  1  0  0  0  0
 29 30  2  0  0  0  0
 31 29  1  0  0  0  0
 32 31  1  0  0  0  0
 33 37  2  0  0  0  0
 33 31  1  0  0  0  0
 34 33  1  0  0  0  0
 35 34  1  0  0  0  0
 36 34  1  0  0  0  0
 37 38  1  0  0  0  0
 38 28  2  0  0  0  0
M  END
>  <VSCORE>
 -8.7

>  <MODEL>
1

>  <TORSDO>
F 8

$$$$
16
 OpenBabel08042114533D

 37 39  0  0  1  0  0  0  0  0999 V2000
  -21.1650   16.6610  -27.2570 C   0  0  1  0  0  3  0  0  0  0  0  0
  -21.4380   12.9440  -29.4200 C   0  0  0  0  0  3  0  0  0  0  0  0
  -20.1950   13.5460  -29.2220 C   0  0  0  0  0  3  0  0  0  0  0  0
  -20.1070   14.7500  -28.5220 C   0  0  0  0  0  3  0  0  0  0  0  0
  -21.2610   15.3500  -28.0200 C   0  0  0  0  0  0  0  0  0  0  0  0
  -22.5040   14.7480  -28.2170 C   0  0  0  0  0  3  0  0  0  0  0  0
  -22.5920   13.5440  -28.9170 C   0  0  0  0  0  3  0  0  0  0  0  0
  -21.5050   16.4700  -25.8670 N   0  0  0  0  0  0  0  0  0  0  0  0
  -21.1850   15.6180  -25.4150 H   0  0  0  0  0  0  0  0  0  0  0  0
  -22.2060   17.4200  -25.1430 C   0  0  0  0  0  0  0  0  0  0  0  0
  -22.6050   18.4950  -25.5790 O   0  0  0  0  0  0  0  0  0  0  0  0
  -22.4270   16.9940  -23.7340 C   0  0  0  0  0  3  0  0  0  0  0  0
  -22.1960   15.7250  -23.3720 C   0  0  0  0  0  3  0  0  0  0  0  0
  -22.3890   15.2460  -22.0320 C   0  0  0  0  0  0  0  0  0  0  0  0
  -21.7290   13.9800  -21.5850 C   0  0  0  0  0  0  0  0  0  0  0  0
  -21.0120   13.3240  -22.3360 O   0  0  0  0  0  0  0  0  0  0  0  0
  -21.9880   13.6140  -20.2700 N   0  0  0  0  0  0  0  0  0  0  0  0
  -21.5540   12.7580  -19.9380 H   0  0  0  0  0  0  0  0  0  0  0  0
  -22.7870   14.3090  -19.3600 C   0  0  0  0  0  0  0  0  0  0  0  0
  -22.9700   13.9230  -18.2060 O   0  0  0  0  0  0  0  0  0  0  0  0
  -23.3540   15.4660  -19.8670 N   0  0  0  0  0  0  0  0  0  0  0  0
  -23.9480   16.0210  -19.2560 H   0  0  0  0  0  0  0  0  0  0  0  0
  -23.1540   15.9020  -21.1480 C   0  0  0  0  0  3  0  0  0  0  0  0
  -19.7850   17.3280  -27.3740 C   0  0  0  0  0  2  0  0  0  0  0  0
  -19.8780   18.7640  -27.3740 N   0  0  0  0  0  0  0  0  0  0  0  0
  -20.2970   19.2210  -28.1820 H   0  0  0  0  0  0  0  0  0  0  0  0
  -19.4260   19.5620  -26.3280 C   0  0  0  0  0  0  0  0  0  0  0  0
  -18.9030   19.1450  -25.2980 O   0  0  0  0  0  0  0  0  0  0  0  0
  -19.6510   21.0260  -26.6100 C   0  0  0  0  0  2  0  0  0  0  0  0
  -18.4620   21.7930  -26.2120 N   0  0  0  0  0  0  0  0  0  0  0  0
  -17.1550   21.5340  -26.7420 C   0  0  0  0  0  2  0  0  0  0  0  0
  -16.3600   22.5880  -26.0020 C   0  0  0  0  0  0  0  0  0  0  0  0
  -15.1560   22.7620  -26.1300 O   0  0  0  0  0  0  0  0  0  0  0  0
  -17.2130   23.2910  -25.1880 N   0  0  0  0  0  0  0  0  0  0  0  0
  -16.9270   24.0540  -24.5840 H   0  0  0  0  0  0  0  0  0  0  0  0
  -18.5080   22.8280  -25.2940 C   0  0  0  0  0  0  0  0  0  0  0  0
  -19.4810   23.2610  -24.6900 O   0  0  0  0  0  0  0  0  0  0  0  0
  1 24  1  1  0  0  0
  1  8  1  0  0  0  0
  2  3  2  0  0  0  0
  2  7  1  0  0  0  0
  3  4  1  0  0  0  0
  4  5  2  0  0  0  0
  5  1  1  0  0  0  0
  6  5  1  0  0  0  0
  7  6  2  0  0  0  0
  8  9  1  0  0  0  0
  8 10  1  0  0  0  0
 10 12  1  0  0  0  0
 11 10  2  0  0  0  0
 12 13  2  0  0  0  0
 13 14  1  0  0  0  0
 14 15  1  0  0  0  0
 14 23  2  0  0  0  0
 15 17  1  0  0  0  0
 16 15  2  0  0  0  0
 17 18  1  0  0  0  0
 17 19  1  0  0  0  0
 19 20  2  0  0  0  0
 21 19  1  0  0  0  0
 21 22  1  0  0  0  0
 23 21  1  0  0  0  0
 24 25  1  0  0  0  0
 25 27  1  0  0  0  0
 26 25  1  0  0  0  0
 27 28  2  0  0  0  0
 29 27  1  0  0  0  0
 29 30  1  0  0  0  0
 30 36  1  0  0  0  0
 31 30  1  0  0  0  0
 31 32  1  0  0  0  0
 32 34  1  0  0  0  0
 33 32  2  0  0  0  0
 34 35  1  0  0  0  0
 36 34  1  0  0  0  0
 36 37  2  0  0  0  0
M  END
>  <VSCORE>
 -8.3

>  <MODEL>
1

>  <TORSDO>
F 8

$$$$
17
 OpenBabel08042114533D

 37 40  0  0  1  0  0  0  0  0999 V2000
  -21.6310   15.3830  -21.0540 C   0  0  0  0  0  3  0  0  0  0  0  0
  -21.5420   16.5130  -21.8690 C   0  0  0  0  0  3  0  0  0  0  0  0
  -21.0770   16.3530  -23.1630 C   0  0  0  0  0  0  0  0  0  0  0  0
  -20.9300   17.4020  -24.2230 C   0  0  0  0  0  2  0  0  0  0  0  0
  -19.9930   16.6860  -25.2140 C   0  0  1  0  0  3  0  0  0  0  0  0
  -20.2850   15.1710  -25.0870 C   0  0  1  0  0  3  0  0  0  0  0  0
  -20.7180   15.0900  -23.6530 C   0  0  0  0  0  0  0  0  0  0  0  0
  -20.8090   13.9640  -22.8510 C   0  0  0  0  0  3  0  0  0  0  0  0
  -21.2670   14.1180  -21.5410 C   0  0  0  0  0  3  0  0  0  0  0  0
  -20.1060   17.2050  -26.5490 N   0  0  0  0  0  0  0  0  0  0  0  0
  -20.7110   16.7130  -27.2050 H   0  0  0  0  0  0  0  0  0  0  0  0
  -19.4560   18.3640  -26.9540 C   0  0  0  0  0  0  0  0  0  0  0  0
  -18.7350   19.0550  -26.2430 O   0  0  0  0  0  0  0  0  0  0  0  0
  -19.7360   18.6950  -28.3790 C   0  0  0  0  0  3  0  0  0  0  0  0
  -20.2810   19.8760  -28.6980 C   0  0  0  0  0  3  0  0  0  0  0  0
  -20.5770   20.2600  -30.0510 C   0  0  0  0  0  0  0  0  0  0  0  0
  -20.9630   21.6620  -30.3560 C   0  0  0  0  0  0  0  0  0  0  0  0
  -21.0400   22.5300  -29.4930 O   0  0  0  0  0  0  0  0  0  0  0  0
  -21.2200   21.8830  -31.6970 N   0  0  0  0  0  0  0  0  0  0  0  0
  -21.4890   22.8160  -31.9930 H   0  0  0  0  0  0  0  0  0  0  0  0
  -21.1220   20.8820  -32.6360 C   0  0  0  0  0  3  0  0  0  0  0  0
  -20.7880   19.6600  -32.3830 N   0  0  0  0  0  0  0  0  0  0  0  0
  -20.5200   19.3810  -31.0640 C   0  0  0  0  0  3  0  0  0  0  0  0
  -21.3180   14.7020  -25.9730 N   0  0  0  0  0  0  0  0  0  0  0  0
  -22.2830   14.9530  -25.7650 H   0  0  0  0  0  0  0  0  0  0  0  0
  -21.0690   13.9240  -27.0990 C   0  0  0  0  0  0  0  0  0  0  0  0
  -19.9570   13.5520  -27.4660 O   0  0  0  0  0  0  0  0  0  0  0  0
  -22.3420   13.5820  -27.8300 C   0  0  0  0  0  2  0  0  0  0  0  0
  -22.4590   14.4200  -29.0330 N   0  0  0  0  0  0  0  0  0  0  0  0
  -22.4240   13.8330  -30.3010 C   0  0  0  0  0  0  0  0  0  0  0  0
  -22.3000   12.6260  -30.5170 O   0  0  0  0  0  0  0  0  0  0  0  0
  -22.5460   14.7490  -31.3540 N   0  0  0  0  0  0  0  0  0  0  0  0
  -22.5260   14.3640  -32.2940 H   0  0  0  0  0  0  0  0  0  0  0  0
  -22.6910   16.1240  -31.2480 C   0  0  0  0  0  0  0  0  0  0  0  0
  -22.7940   16.8890  -32.2020 O   0  0  0  0  0  0  0  0  0  0  0  0
  -22.7140   16.6340  -29.8620 C   0  0  0  0  0  3  0  0  0  0  0  0
  -22.6000   15.7740  -28.8480 C   0  0  0  0  0  3  0  0  0  0  0  0
  2  1  2  0  0  0  0
  3  2  1  0  0  0  0
  4  3  1  0  0  0  0
  5 10  1  6  0  0  0
  5  6  1  0  0  0  0
  5  4  1  0  0  0  0
  6 24  1  6  0  0  0
  6  7  1  0  0  0  0
  7  3  2  0  0  0  0
  7  8  1  0  0  0  0
  8  9  2  0  0  0  0
  9  1  1  0  0  0  0
 11 10  1  0  0  0  0
 12 10  1  0  0  0  0
 12 13  2  0  0  0  0
 14 12  1  0  0  0  0
 15 14  2  0  0  0  0
 16 15  1  0  0  0  0
 17 16  1  0  0  0  0
 17 18  2  0  0  0  0
 19 17  1  0  0  0  0
 20 19  1  0  0  0  0
 21 22  2  0  0  0  0
 21 19  1  0  0  0  0
 22 23  1  0  0  0  0
 23 16  2  0  0  0  0
 24 25  1  0  0  0  0
 26 24  1  0  0  0  0
 27 26  2  0  0  0  0
 28 26  1  0  0  0  0
 29 37  1  0  0  0  0
 29 28  1  0  0  0  0
 30 29  1  0  0  0  0
 31 30  2  0  0  0  0
 32 34  1  0  0  0  0
 32 30  1  0  0  0  0
 33 32  1  0  0  0  0
 34 36  1  0  0  0  0
 35 34  2  0  0  0  0
 36 37  2  0  0  0  0
M  END
>  <VSCORE>
 -9.1

>  <MODEL>
1

>  <TORSDO>
F 6

$$$$
18
 OpenBabel08042114533D

 39 42  0  0  1  0  0  0  0  0999 V2000
  -20.2500   18.8460  -29.3340 C   0  0  1  0  0  3  0  0  0  0  0  0
  -22.1140   12.6130  -29.7320 C   0  0  0  0  0  3  0  0  0  0  0  0
  -20.9200   13.1810  -29.2880 C   0  0  0  0  0  3  0  0  0  0  0  0
  -20.7430   14.5750  -29.2940 C   0  0  0  0  0  0  0  0  0  0  0  0
  -21.7920   15.4020  -29.7580 C   0  0  0  0  0  0  0  0  0  0  0  0
  -21.6150   16.7960  -29.7640 C   0  0  0  0  0  3  0  0  0  0  0  0
  -20.4210   17.3640  -29.3200 C   0  0  0  0  0  0  0  0  0  0  0  0
  -19.3890   16.5500  -28.8640 C   0  0  0  0  0  3  0  0  0  0  0  0
  -22.9880   14.8140  -30.2010 C   0  0  0  0  0  3  0  0  0  0  0  0
  -19.5470   15.1630  -28.8510 C   0  0  0  0  0  3  0  0  0  0  0  0
  -23.1460   13.4280  -30.1880 C   0  0  0  0  0  3  0  0  0  0  0  0
  -20.8100   19.4500  -30.5600 N   0  0  0  0  0  0  0  0  0  0  0  0
  -21.4810   18.9340  -31.0930 H   0  0  0  0  0  0  0  0  0  0  0  0
  -20.4380   20.6960  -30.9930 C   0  0  0  0  0  0  0  0  0  0  0  0
  -19.6300   21.4460  -30.4500 O   0  0  0  0  0  0  0  0  0  0  0  0
  -21.1660   21.0460  -32.2650 C   0  0  0  0  0  2  0  0  0  0  0  0
  -22.5130   21.5410  -31.9430 N   0  0  0  0  0  0  0  0  0  0  0  0
  -23.6930   20.7430  -32.1000 C   0  0  0  0  0  2  0  0  0  0  0  0
  -24.7400   21.7310  -31.6330 C   0  0  0  0  0  0  0  0  0  0  0  0
  -25.9390   21.4970  -31.5870 O   0  0  0  0  0  0  0  0  0  0  0  0
  -24.1140   22.9020  -31.2850 N   0  0  0  0  0  0  0  0  0  0  0  0
  -24.5950   23.7250  -30.9390 H   0  0  0  0  0  0  0  0  0  0  0  0
  -22.7490   22.8180  -31.4620 C   0  0  0  0  0  0  0  0  0  0  0  0
  -21.9350   23.7040  -31.2340 O   0  0  0  0  0  0  0  0  0  0  0  0
  -20.8550   19.5630  -28.1030 C   0  0  0  0  0  2  0  0  0  0  0  0
  -20.7970   18.7380  -26.9250 N   0  0  0  0  0  0  0  0  0  0  0  0
  -21.5800   18.1130  -26.7410 H   0  0  0  0  0  0  0  0  0  0  0  0
  -19.7030   18.7390  -26.0720 C   0  0  0  0  0  0  0  0  0  0  0  0
  -18.6940   19.4210  -26.2160 O   0  0  0  0  0  0  0  0  0  0  0  0
  -19.8820   17.7990  -24.9320 C   0  0  0  0  0  3  0  0  0  0  0  0
  -20.2860   16.5410  -25.1560 C   0  0  0  0  0  3  0  0  0  0  0  0
  -20.4790   15.5830  -24.1030 C   0  0  0  0  0  0  0  0  0  0  0  0
  -21.7880   15.5080  -23.4010 C   0  0  0  0  0  0  0  0  0  0  0  0
  -22.7320   16.2380  -23.6820 O   0  0  0  0  0  0  0  0  0  0  0  0
  -21.8260   14.5430  -22.4130 N   0  0  0  0  0  0  0  0  0  0  0  0
  -22.6850   14.4230  -21.8830 H   0  0  0  0  0  0  0  0  0  0  0  0
  -20.7450   13.7420  -22.1260 C   0  0  0  0  0  3  0  0  0  0  0  0
  -19.6030   13.7980  -22.7290 N   0  0  0  0  0  0  0  0  0  0  0  0
  -19.5050   14.7410  -23.7230 C   0  0  0  0  0  3  0  0  0  0  0  0
  1  7  1  0  0  0  0
  1 25  1  1  0  0  0
  2  3  1  0  0  0  0
  4  3  2  0  0  0  0
  4 10  1  0  0  0  0
  5  4  1  0  0  0  0
  6  5  1  0  0  0  0
  6  7  2  0  0  0  0
  7  8  1  0  0  0  0
  8 10  2  0  0  0  0
  9 11  1  0  0  0  0
  9  5  2  0  0  0  0
 11  2  2  0  0  0  0
 12  1  1  0  0  0  0
 13 12  1  0  0  0  0
 14 12  1  0  0  0  0
 14 15  2  0  0  0  0
 16 17  1  0  0  0  0
 16 14  1  0  0  0  0
 17 23  1  0  0  0  0
 18 17  1  0  0  0  0
 18 19  1  0  0  0  0
 19 20  2  0  0  0  0
 19 21  1  0  0  0  0
 21 22  1  0  0  0  0
 23 21  1  0  0  0  0
 23 24  2  0  0  0  0
 25 26  1  0  0  0  0
 26 27  1  0  0  0  0
 26 28  1  0  0  0  0
 28 30  1  0  0  0  0
 29 28  2  0  0  0  0
 31 30  2  0  0  0  0
 31 32  1  0  0  0  0
 32 39  2  0  0  0  0
 32 33  1  0  0  0  0
 33 35  1  0  0  0  0
 34 33  2  0  0  0  0
 35 37  1  0  0  0  0
 35 36  1  0  0  0  0
 38 37  2  0  0  0  0
 39 38  1  0  0  0  0
M  END
>  <VSCORE>
 -8.8

>  <MODEL>
1

>  <TORSDO>
F 8

$$$$
19
 OpenBabel08042114533D

 39 42  0  0  1  0  0  0  0  0999 V2000
  -21.0470   15.5160  -24.8080 C   0  0  1  0  0  3  0  0  0  0  0  0
  -23.9220   15.6970  -18.9620 C   0  0  0  0  0  3  0  0  0  0  0  0
  -23.0970   14.7340  -19.5430 C   0  0  0  0  0  3  0  0  0  0  0  0
  -22.5860   14.9150  -20.8390 C   0  0  0  0  0  0  0  0  0  0  0  0
  -22.9180   16.0900  -21.5540 C   0  0  0  0  0  0  0  0  0  0  0  0
  -22.4070   16.2710  -22.8500 C   0  0  0  0  0  3  0  0  0  0  0  0
  -21.5810   15.3080  -23.4310 C   0  0  0  0  0  0  0  0  0  0  0  0
  -21.2560   14.1530  -22.7280 C   0  0  0  0  0  3  0  0  0  0  0  0
  -23.7490   17.0490  -20.9540 C   0  0  0  0  0  3  0  0  0  0  0  0
  -21.7540   13.9560  -21.4390 C   0  0  0  0  0  3  0  0  0  0  0  0
  -24.2470   16.8520  -19.6660 C   0  0  0  0  0  3  0  0  0  0  0  0
  -20.1220   16.6670  -24.8680 N   0  0  0  0  0  0  0  0  0  0  0  0
  -19.2600   16.5630  -24.3710 H   0  0  0  0  0  0  0  0  0  0  0  0
  -20.4310   17.7800  -25.6000 C   0  0  0  0  0  0  0  0  0  0  0  0
  -21.4480   17.9610  -26.2630 O   0  0  0  0  0  0  0  0  0  0  0  0
  -19.3430   18.7910  -25.5050 C   0  0  0  0  0  3  0  0  0  0  0  0
  -19.4570   19.9630  -26.1440 C   0  0  0  0  0  3  0  0  0  0  0  0
  -18.4470   20.9820  -26.0950 C   0  0  0  0  0  0  0  0  0  0  0  0
  -18.7080   22.2500  -25.3630 C   0  0  0  0  0  0  0  0  0  0  0  0
  -19.7660   22.4750  -24.7850 O   0  0  0  0  0  0  0  0  0  0  0  0
  -17.6470   23.1360  -25.4030 N   0  0  0  0  0  0  0  0  0  0  0  0
  -17.7400   24.0290  -24.9260 H   0  0  0  0  0  0  0  0  0  0  0  0
  -16.4750   22.8480  -26.0630 C   0  0  0  0  0  3  0  0  0  0  0  0
  -16.2380   21.7510  -26.7020 N   0  0  0  0  0  0  0  0  0  0  0  0
  -17.2570   20.8300  -26.6960 C   0  0  0  0  0  3  0  0  0  0  0  0
  -20.3410   14.2760  -25.4080 C   0  0  0  0  0  2  0  0  0  0  0  0
  -20.2210   14.3730  -26.8390 N   0  0  0  0  0  0  0  0  0  0  0  0
  -19.3460   14.7170  -27.2300 H   0  0  0  0  0  0  0  0  0  0  0  0
  -21.2400   14.0170  -27.7130 C   0  0  0  0  0  0  0  0  0  0  0  0
  -22.3410   13.5880  -27.3750 O   0  0  0  0  0  0  0  0  0  0  0  0
  -20.8680   14.2150  -29.1700 C   0  0  0  0  0  2  0  0  0  0  0  0
  -21.4130   15.5160  -29.6440 C   0  0  0  0  0  0  0  0  0  0  0  0
  -20.6170   16.7520  -29.3890 C   0  0  0  0  0  0  0  0  0  0  0  0
  -19.5380   16.6950  -28.8020 O   0  0  0  0  0  0  0  0  0  0  0  0
  -21.2090   17.9190  -29.8690 N   0  0  0  0  0  0  0  0  0  0  0  0
  -20.5330   19.1930  -29.6830 C   0  0  0  0  0  1  0  0  0  0  0  0
  -22.4280   17.8850  -30.5190 C   0  0  0  0  0  3  0  0  0  0  0  0
  -23.1250   16.8190  -30.7450 N   0  0  0  0  0  0  0  0  0  0  0  0
  -22.5810   15.6480  -30.2900 C   0  0  0  0  0  3  0  0  0  0  0  0
  1 26  1  1  0  0  0
  1  7  1  0  0  0  0
  3  2  1  0  0  0  0
  4  3  2  0  0  0  0
  5  9  2  0  0  0  0
  5  4  1  0  0  0  0
  6  5  1  0  0  0  0
  7  6  2  0  0  0  0
  7  8  1  0  0  0  0
  8 10  2  0  0  0  0
  9 11  1  0  0  0  0
 10  4  1  0  0  0  0
 11  2  2  0  0  0  0
 12  1  1  0  0  0  0
 12 13  1  0  0  0  0
 14 16  1  0  0  0  0
 14 12  1  0  0  0  0
 15 14  2  0  0  0  0
 17 18  1  0  0  0  0
 17 16  2  0  0  0  0
 18 19  1  0  0  0  0
 19 20  2  0  0  0  0
 21 19  1  0  0  0  0
 21 22  1  0  0  0  0
 23 21  1  0  0  0  0
 24 25  1  0  0  0  0
 24 23  2  0  0  0  0
 25 18  2  0  0  0  0
 27 26  1  0  0  0  0
 28 27  1  0  0  0  0
 29 30  2  0  0  0  0
 29 27  1  0  0  0  0
 31 29  1  0  0  0  0
 32 33  1  0  0  0  0
 32 31  1  0  0  0  0
 33 34  2  0  0  0  0
 35 36  1  0  0  0  0
 35 33  1  0  0  0  0
 37 35  1  0  0  0  0
 38 37  2  0  0  0  0
 38 39  1  0  0  0  0
 39 32  2  0  0  0  0
M  END
>  <VSCORE>
 -8.9

>  <MODEL>
1

>  <TORSDO>
F 8

$$$$
1
 OpenBabel08042114533D

 40 43  0  0  1  0  0  0  0  0999 V2000
  -22.1400   18.8030  -30.9150 C   0  0  1  0  0  3  0  0  0  0  0  0
  -25.7940   22.9240  -34.3990 C   0  0  0  0  0  3  0  0  0  0  0  0
  -24.4270   22.9300  -34.1200 C   0  0  0  0  0  3  0  0  0  0  0  0
  -23.8520   21.9190  -33.3310 C   0  0  0  0  0  0  0  0  0  0  0  0
  -24.6760   20.8890  -32.8200 C   0  0  0  0  0  0  0  0  0  0  0  0
  -24.1010   19.8780  -32.0320 C   0  0  0  0  0  3  0  0  0  0  0  0
  -22.7340   19.8840  -31.7530 C   0  0  0  0  0  0  0  0  0  0  0  0
  -21.9250   20.8970  -32.2550 C   0  0  0  0  0  3  0  0  0  0  0  0
  -26.0500   20.8970  -33.1120 C   0  0  0  0  0  3  0  0  0  0  0  0
  -22.4780   21.9100  -33.0400 C   0  0  0  0  0  3  0  0  0  0  0  0
  -26.6030   21.9100  -33.8960 C   0  0  0  0  0  3  0  0  0  0  0  0
  -21.7840   19.2890  -29.5650 N   0  0  0  0  0  0  0  0  0  0  0  0
  -22.4140   19.9030  -29.0890 H   0  0  0  0  0  0  0  0  0  0  0  0
  -20.6190   18.9230  -28.9480 C   0  0  0  0  0  0  0  0  0  0  0  0
  -19.7540   18.1800  -29.4090 O   0  0  0  0  0  0  0  0  0  0  0  0
  -20.4860   19.5570  -27.5770 C   0  0  0  0  0  2  0  0  0  0  0  0
  -19.2440   20.3750  -27.5340 C   0  0  0  0  0  0  0  0  0  0  0  0
  -19.2150   21.6570  -28.2960 C   0  0  0  0  0  0  0  0  0  0  0  0
  -20.1780   22.0480  -28.9480 O   0  0  0  0  0  0  0  0  0  0  0  0
  -18.0180   22.3400  -28.1910 N   0  0  0  0  0  0  0  0  0  0  0  0
  -17.9170   23.2250  -28.6810 H   0  0  0  0  0  0  0  0  0  0  0  0
  -16.9640   21.8630  -27.4490 C   0  0  0  0  0  3  0  0  0  0  0  0
  -16.9720   20.7550  -26.7840 N   0  0  0  0  0  0  0  0  0  0  0  0
  -18.1380   20.0350  -26.8520 C   0  0  0  0  0  3  0  0  0  0  0  0
  -23.0340   17.5470  -30.7740 C   0  0  0  0  0  2  0  0  0  0  0  0
  -22.7480   16.8230  -29.5620 N   0  0  0  0  0  0  0  0  0  0  0  0
  -22.8110   17.3260  -28.6800 H   0  0  0  0  0  0  0  0  0  0  0  0
  -22.4330   15.4720  -29.5640 C   0  0  0  0  0  0  0  0  0  0  0  0
  -22.3650   14.7610  -30.5610 O   0  0  0  0  0  0  0  0  0  0  0  0
  -22.1860   14.9550  -28.1900 C   0  0  0  0  0  3  0  0  0  0  0  0
  -21.7360   15.7770  -27.2340 C   0  0  0  0  0  3  0  0  0  0  0  0
  -21.4770   15.3450  -25.8880 C   0  0  0  0  0  0  0  0  0  0  0  0
  -22.3680   15.7810  -24.7850 C   0  0  0  0  0  0  0  0  0  0  0  0
  -23.3390   16.5080  -24.9660 O   0  0  0  0  0  0  0  0  0  0  0  0
  -21.9960   15.2890  -23.5470 N   0  0  0  0  0  0  0  0  0  0  0  0
  -22.5630   15.5480  -22.7430 H   0  0  0  0  0  0  0  0  0  0  0  0
  -20.8980   14.4730  -23.3730 C   0  0  0  0  0  0  0  0  0  0  0  0
  -20.1170   14.0910  -24.3350 N   0  0  0  0  0  0  0  0  0  0  0  0
  -20.6350   14.0280  -21.9630 C   0  0  0  0  0  1  0  0  0  0  0  0
  -20.4390   14.5500  -25.5880 C   0  0  0  0  0  3  0  0  0  0  0  0
  1 25  1  1  0  0  0
  1 12  1  0  0  0  0
  2  3  2  0  0  0  0
  2 11  1  0  0  0  0
  3  4  1  0  0  0  0
  4 10  2  0  0  0  0
  4  5  1  0  0  0  0
  5  6  2  0  0  0  0
  6  7  1  0  0  0  0
  7  1  1  0  0  0  0
  8  7  2  0  0  0  0
  9  5  1  0  0  0  0
 10  8  1  0  0  0  0
 11  9  2  0  0  0  0
 12 13  1  0  0  0  0
 12 14  1  0  0  0  0
 14 16  1  0  0  0  0
 15 14  2  0  0  0  0
 16 17  1  0  0  0  0
 17 24  2  0  0  0  0
 18 20  1  0  0  0  0
 18 17  1  0  0  0  0
 19 18  2  0  0  0  0
 20 22  1  0  0  0  0
 21 20  1  0  0  0  0
 22 23  2  0  0  0  0
 24 23  1  0  0  0  0
 25 26  1  0  0  0  0
 26 27  1  0  0  0  0
 28 26  1  0  0  0  0
 28 30  1  0  0  0  0
 29 28  2  0  0  0  0
 30 31  2  0  0  0  0
 31 32  1  0  0  0  0
 32 40  2  0  0  0  0
 32 33  1  0  0  0  0
 33 35  1  0  0  0  0
 34 33  2  0  0  0  0
 35 37  1  0  0  0  0
 35 36  1  0  0  0  0
 37 39  1  0  0  0  0
 38 37  2  0  0  0  0
 40 38  1  0  0  0  0
M  END
>  <VSCORE>
 -8.9

>  <MODEL>
1

>  <TORSDO>
F 8

$$$$
20
 OpenBabel08042114533D

 35 38  0  0  1  0  0  0  0  0999 V2000
  -19.8580   20.6420  -28.7050 C   0  0  0  0  0  3  0  0  0  0  0  0
  -19.3180   20.7030  -27.4190 C   0  0  0  0  0  3  0  0  0  0  0  0
  -19.9320   19.9760  -26.4140 C   0  0  0  0  0  0  0  0  0  0  0  0
  -19.5170   19.8590  -24.9790 C   0  0  0  0  0  2  0  0  0  0  0  0
  -20.8060   19.3000  -24.3470 C   0  0  1  0  0  3  0  0  0  0  0  0
  -21.5120   18.4640  -25.4430 C   0  0  1  0  0  3  0  0  0  0  0  0
  -21.0570   19.1830  -26.6780 C   0  0  0  0  0  0  0  0  0  0  0  0
  -21.5940   19.1120  -27.9530 C   0  0  0  0  0  3  0  0  0  0  0  0
  -20.9880   19.8520  -28.9710 C   0  0  0  0  0  3  0  0  0  0  0  0
  -20.5540   18.5900  -23.1240 N   0  0  0  0  0  0  0  0  0  0  0  0
  -19.6210   18.2070  -22.9730 H   0  0  0  0  0  0  0  0  0  0  0  0
  -21.5140   18.3960  -22.1350 C   0  0  0  0  0  0  0  0  0  0  0  0
  -22.6710   18.8020  -22.1890 O   0  0  0  0  0  0  0  0  0  0  0  0
  -20.9630   17.6140  -20.9700 C   0  0  0  0  0  2  0  0  0  0  0  0
  -20.8690   16.1910  -21.3320 N   0  0  0  0  0  0  0  0  0  0  0  0
  -19.6560   15.7140  -21.7710 N   0  0  0  0  0  0  0  0  0  0  0  0
  -18.8870   16.3750  -21.8240 H   0  0  0  0  0  0  0  0  0  0  0  0
  -19.4750   14.4020  -22.1270 C   0  0  0  0  0  0  0  0  0  0  0  0
  -18.4060   13.9430  -22.5220 O   0  0  0  0  0  0  0  0  0  0  0  0
  -20.6570   13.5260  -22.0140 C   0  0  0  0  0  3  0  0  0  0  0  0
  -21.8260   14.0020  -21.5880 C   0  0  0  0  0  3  0  0  0  0  0  0
  -21.9900   15.4220  -21.2110 C   0  0  0  0  0  0  0  0  0  0  0  0
  -23.0910   15.8120  -20.8210 O   0  0  0  0  0  0  0  0  0  0  0  0
  -21.1140   17.0810  -25.4650 N   0  0  0  0  0  0  0  0  0  0  0  0
  -20.1360   16.8570  -25.6380 H   0  0  0  0  0  0  0  0  0  0  0  0
  -22.0100   16.0370  -25.2590 C   0  0  0  0  0  0  0  0  0  0  0  0
  -23.2100   16.1760  -25.0420 O   0  0  0  0  0  0  0  0  0  0  0  0
  -21.3230   14.6870  -25.3410 C   0  0  0  0  0  2  0  0  0  0  0  0
  -21.0780   14.2280  -26.7530 C   0  0  0  0  0  0  0  0  0  0  0  0
  -19.7930   14.1380  -27.2640 C   0  0  0  0  0  3  0  0  0  0  0  0
  -19.5030   13.7320  -28.5200 N   0  0  0  0  0  0  0  0  0  0  0  0
  -20.5560   13.4000  -29.3010 C   0  0  0  0  0  3  0  0  0  0  0  0
  -21.8770   13.4540  -28.8860 C   0  0  0  0  0  0  0  0  0  0  0  0
  -22.9850   13.0720  -29.8020 C   0  0  0  0  0  1  0  0  0  0  0  0
  -22.1340   13.8770  -27.5870 C   0  0  0  0  0  3  0  0  0  0  0  0
  1  2  1  0  0  0  0
  2  3  2  0  0  0  0
  3  4  1  0  0  0  0
  4  5  1  0  0  0  0
  5 10  1  1  0  0  0
  6 24  1  6  0  0  0
  6  5  1  0  0  0  0
  7  3  1  0  0  0  0
  7  6  1  0  0  0  0
  8  7  2  0  0  0  0
  9  1  2  0  0  0  0
  9  8  1  0  0  0  0
 10 11  1  0  0  0  0
 10 12  1  0  0  0  0
 12 14  1  0  0  0  0
 13 12  2  0  0  0  0
 15 22  1  0  0  0  0
 15 14  1  0  0  0  0
 16 15  1  0  0  0  0
 17 16  1  0  0  0  0
 18 20  1  0  0  0  0
 18 16  1  0  0  0  0
 19 18  2  0  0  0  0
 20 21  2  0  0  0  0
 21 22  1  0  0  0  0
 22 23  2  0  0  0  0
 24 26  1  0  0  0  0
 25 24  1  0  0  0  0
 26 27  2  0  0  0  0
 28 26  1  0  0  0  0
 29 28  1  0  0  0  0
 30 29  1  0  0  0  0
 31 30  2  0  0  0  0
 32 33  2  0  0  0  0
 32 31  1  0  0  0  0
 33 35  1  0  0  0  0
 34 33  1  0  0  0  0
 35 29  2  0  0  0  0
M  END
>  <VSCORE>
 -8.7

>  <MODEL>
1

>  <TORSDO>
F 6

$$$$
21
 OpenBabel08042114533D

 35 37  0  0  1  0  0  0  0  0999 V2000
  -21.0940   15.5320  -24.8990 C   0  0  1  0  0  3  0  0  0  0  0  0
  -22.6430   15.2530  -20.8880 C   0  0  0  0  0  3  0  0  0  0  0  0
  -21.8330   14.2380  -21.3950 C   0  0  0  0  0  3  0  0  0  0  0  0
  -21.3320   14.3280  -22.6940 C   0  0  0  0  0  3  0  0  0  0  0  0
  -21.6410   15.4340  -23.4850 C   0  0  0  0  0  0  0  0  0  0  0  0
  -22.4510   16.4500  -22.9780 C   0  0  0  0  0  3  0  0  0  0  0  0
  -22.9520   16.3600  -21.6790 C   0  0  0  0  0  3  0  0  0  0  0  0
  -20.1590   16.6270  -25.0120 N   0  0  0  0  0  0  0  0  0  0  0  0
  -19.2760   16.5460  -24.5170 H   0  0  0  0  0  0  0  0  0  0  0  0
  -20.4180   17.7390  -25.7960 C   0  0  0  0  0  0  0  0  0  0  0  0
  -21.4330   17.9200  -26.4610 O   0  0  0  0  0  0  0  0  0  0  0  0
  -19.3010   18.7220  -25.7520 C   0  0  0  0  0  3  0  0  0  0  0  0
  -19.5310   20.0120  -26.0280 C   0  0  0  0  0  3  0  0  0  0  0  0
  -18.5010   21.0130  -26.0050 C   0  0  0  0  0  0  0  0  0  0  0  0
  -18.7340   22.3020  -25.3030 C   0  0  0  0  0  0  0  0  0  0  0  0
  -19.7870   22.5610  -24.7280 O   0  0  0  0  0  0  0  0  0  0  0  0
  -17.6570   23.1660  -25.3660 N   0  0  0  0  0  0  0  0  0  0  0  0
  -17.7310   24.0710  -24.9110 H   0  0  0  0  0  0  0  0  0  0  0  0
  -16.4920   22.8390  -26.0220 C   0  0  0  0  0  3  0  0  0  0  0  0
  -16.2780   21.7220  -26.6350 N   0  0  0  0  0  0  0  0  0  0  0  0
  -17.3160   20.8220  -26.6060 C   0  0  0  0  0  3  0  0  0  0  0  0
  -20.4400   14.2300  -25.3870 C   0  0  0  0  0  2  0  0  0  0  0  0
  -20.3160   14.1910  -26.8200 N   0  0  0  0  0  0  0  0  0  0  0  0
  -19.4150   14.4270  -27.2330 H   0  0  0  0  0  0  0  0  0  0  0  0
  -21.3600   13.8460  -27.6710 C   0  0  0  0  0  0  0  0  0  0  0  0
  -22.4930   13.5390  -27.3090 O   0  0  0  0  0  0  0  0  0  0  0  0
  -20.9370   13.8960  -29.1170 C   0  0  0  0  0  2  0  0  0  0  0  0
  -21.3760   15.1650  -29.7160 N   0  0  0  0  0  0  0  0  0  0  0  0
  -22.5710   15.2830  -30.4980 C   0  0  0  0  0  2  0  0  0  0  0  0
  -22.5160   16.7570  -30.8380 C   0  0  0  0  0  0  0  0  0  0  0  0
  -23.3510   17.3430  -31.5120 O   0  0  0  0  0  0  0  0  0  0  0  0
  -21.3900   17.2970  -30.2670 N   0  0  0  0  0  0  0  0  0  0  0  0
  -21.1210   18.2720  -30.3470 H   0  0  0  0  0  0  0  0  0  0  0  0
  -20.6700   16.3470  -29.5730 C   0  0  0  0  0  0  0  0  0  0  0  0
  -19.6260   16.5360  -28.9630 O   0  0  0  0  0  0  0  0  0  0  0  0
  1 22  1  1  0  0  0
  1  5  1  0  0  0  0
  3  2  1  0  0  0  0
  4  3  2  0  0  0  0
  5  6  2  0  0  0  0
  5  4  1  0  0  0  0
  6  7  1  0  0  0  0
  7  2  2  0  0  0  0
  8  1  1  0  0  0  0
  8  9  1  0  0  0  0
 10 12  1  0  0  0  0
 10  8  1  0  0  0  0
 11 10  2  0  0  0  0
 13 14  1  0  0  0  0
 13 12  2  0  0  0  0
 14 15  1  0  0  0  0
 15 16  2  0  0  0  0
 17 15  1  0  0  0  0
 17 18  1  0  0  0  0
 19 17  1  0  0  0  0
 20 21  1  0  0  0  0
 20 19  2  0  0  0  0
 21 14  2  0  0  0  0
 23 22  1  0  0  0  0
 24 23  1  0  0  0  0
 25 26  2  0  0  0  0
 25 23  1  0  0  0  0
 27 25  1  0  0  0  0
 28 34  1  0  0  0  0
 28 27  1  0  0  0  0
 29 28  1  0  0  0  0
 30 29  1  0  0  0  0
 30 32  1  0  0  0  0
 31 30  2  0  0  0  0
 32 34  1  0  0  0  0
 33 32  1  0  0  0  0
 34 35  2  0  0  0  0
M  END
>  <VSCORE>
 -8.3

>  <MODEL>
1

>  <TORSDO>
F 8

$$$$
22
 OpenBabel08042114533D

 37 40  0  0  1  0  0  0  0  0999 V2000
  -20.9130   18.9730  -28.9160 C   0  0  1  0  0  3  0  0  0  0  0  0
  -21.8490   12.5830  -29.7910 C   0  0  0  0  0  3  0  0  0  0  0  0
  -20.7150   13.2930  -29.3940 C   0  0  0  0  0  3  0  0  0  0  0  0
  -20.7510   14.6910  -29.2740 C   0  0  0  0  0  0  0  0  0  0  0  0
  -21.9540   15.3800  -29.5590 C   0  0  0  0  0  0  0  0  0  0  0  0
  -21.9910   16.7790  -29.4370 C   0  0  0  0  0  3  0  0  0  0  0  0
  -20.8570   17.4880  -29.0400 C   0  0  0  0  0  0  0  0  0  0  0  0
  -19.6730   16.8110  -28.7590 C   0  0  0  0  0  3  0  0  0  0  0  0
  -23.0860   14.6490  -29.9570 C   0  0  0  0  0  3  0  0  0  0  0  0
  -19.6200   15.4220  -28.8740 C   0  0  0  0  0  3  0  0  0  0  0  0
  -23.0310   13.2610  -30.0720 C   0  0  0  0  0  3  0  0  0  0  0  0
  -21.8200   19.5730  -29.9170 N   0  0  0  0  0  0  0  0  0  0  0  0
  -22.7640   19.7830  -29.6590 H   0  0  0  0  0  0  0  0  0  0  0  0
  -21.3970   19.8490  -31.1900 C   0  0  0  0  0  0  0  0  0  0  0  0
  -20.2720   19.6450  -31.6400 O   0  0  0  0  0  0  0  0  0  0  0  0
  -22.5270   20.4510  -32.0020 C   0  0  0  0  0  2  0  0  0  0  0  0
  -23.7970   19.6440  -31.9490 C   0  0  0  0  0  0  0  0  0  0  0  0
  -25.0120   20.2420  -31.6570 C   0  0  0  0  0  3  0  0  0  0  0  0
  -26.1870   19.5770  -31.5930 N   0  0  0  0  0  0  0  0  0  0  0  0
  -26.1380   18.2470  -31.8340 C   0  0  0  0  0  3  0  0  0  0  0  0
  -24.9750   17.5550  -32.1340 C   0  0  0  0  0  0  0  0  0  0  0  0
  -23.7870   18.2750  -32.1910 C   0  0  0  0  0  3  0  0  0  0  0  0
  -24.9960   16.2200  -32.3660 O   0  0  0  0  0  0  0  0  0  0  0  0
  -25.2140   16.0390  -33.2970 H   0  0  0  0  0  0  0  0  0  0  0  0
  -21.3180   19.4770  -27.5090 C   0  0  0  0  0  2  0  0  0  0  0  0
  -20.4070   20.4800  -27.0210 N   0  0  0  0  0  0  0  0  0  0  0  0
  -20.6520   21.4600  -27.1450 H   0  0  0  0  0  0  0  0  0  0  0  0
  -19.2140   20.1700  -26.3920 C   0  0  0  0  0  0  0  0  0  0  0  0
  -18.7770   19.0480  -26.1670 O   0  0  0  0  0  0  0  0  0  0  0  0
  -18.4550   21.3680  -25.9860 C   0  0  0  0  0  0  0  0  0  0  0  0
  -17.1720   21.4510  -26.3670 C   0  0  0  0  0  3  0  0  0  0  0  0
  -16.3710   22.6510  -25.9740 C   0  0  0  0  0  0  0  0  0  0  0  0
  -15.1940   22.7480  -26.3130 O   0  0  0  0  0  0  0  0  0  0  0  0
  -17.0470   23.6030  -25.2270 N   0  0  0  0  0  0  0  0  0  0  0  0
  -16.5500   24.4400  -24.9330 H   0  0  0  0  0  0  0  0  0  0  0  0
  -18.3630   23.4820  -24.8560 C   0  0  0  0  0  3  0  0  0  0  0  0
  -19.0790   22.4090  -25.2070 C   0  0  0  0  0  3  0  0  0  0  0  0
  1 25  1  1  0  0  0
  2  3  1  0  0  0  0
  3  4  2  0  0  0  0
  4 10  1  0  0  0  0
  5  6  1  0  0  0  0
  5  4  1  0  0  0  0
  6  7  2  0  0  0  0
  7  1  1  0  0  0  0
  7  8  1  0  0  0  0
  9  5  2  0  0  0  0
 10  8  2  0  0  0  0
 11  9  1  0  0  0  0
 11  2  2  0  0  0  0
 12 13  1  0  0  0  0
 12  1  1  0  0  0  0
 14 12  1  0  0  0  0
 15 14  2  0  0  0  0
 16 17  1  0  0  0  0
 16 14  1  0  0  0  0
 17 18  1  0  0  0  0
 18 19  2  0  0  0  0
 20 19  1  0  0  0  0
 21 20  2  0  0  0  0
 22 21  1  0  0  0  0
 22 17  2  0  0  0  0
 23 21  1  0  0  0  0
 24 23  1  0  0  0  0
 25 26  1  0  0  0  0
 26 28  1  0  0  0  0
 27 26  1  0  0  0  0
 28 29  2  0  0  0  0
 28 30  1  0  0  0  0
 30 37  1  0  0  0  0
 31 30  2  0  0  0  0
 31 32  1  0  0  0  0
 32 34  1  0  0  0  0
 33 32  2  0  0  0  0
 34 35  1  0  0  0  0
 34 36  1  0  0  0  0
 37 36  2  0  0  0  0
M  END
>  <VSCORE>
 -9.4

>  <MODEL>
1

>  <TORSDO>
F 8

$$$$
23
 OpenBabel08042114533D

 36 39  0  0  1  0  0  0  0  0999 V2000
  -24.3970   15.7530  -19.1580 C   0  0  0  0  0  3  0  0  0  0  0  0
  -23.6450   16.9270  -19.2060 C   0  0  0  0  0  3  0  0  0  0  0  0
  -22.4970   16.9430  -19.9820 C   0  0  0  0  0  0  0  0  0  0  0  0
  -21.5230   18.0670  -20.1460 C   0  0  0  0  0  2  0  0  0  0  0  0
  -20.7400   17.6250  -21.3980 C   0  0  1  0  0  3  0  0  0  0  0  0
  -20.7920   16.0750  -21.4100 C   0  0  1  0  0  3  0  0  0  0  0  0
  -22.0890   15.8100  -20.6980 C   0  0  0  0  0  0  0  0  0  0  0  0
  -22.8240   14.6360  -20.6400 C   0  0  0  0  0  3  0  0  0  0  0  0
  -23.9900   14.6140  -19.8700 C   0  0  0  0  0  3  0  0  0  0  0  0
  -21.3180   18.2140  -22.5890 N   0  0  0  0  0  0  0  0  0  0  0  0
  -22.0640   17.7080  -23.0640 H   0  0  0  0  0  0  0  0  0  0  0  0
  -20.9090   19.4350  -23.1190 C   0  0  0  0  0  0  0  0  0  0  0  0
  -20.0250   20.1460  -22.6490 O   0  0  0  0  0  0  0  0  0  0  0  0
  -21.6870   19.7910  -24.3600 C   0  0  0  0  0  2  0  0  0  0  0  0
  -20.8500   19.5670  -25.5480 N   0  0  0  0  0  0  0  0  0  0  0  0
  -20.1230   20.6240  -26.0990 C   0  0  0  0  0  0  0  0  0  0  0  0
  -20.1180   21.7770  -25.6640 O   0  0  0  0  0  0  0  0  0  0  0  0
  -19.2950   20.2880  -27.3180 C   0  0  0  0  0  0  0  0  0  0  0  0
  -19.3160   19.0260  -27.7750 C   0  0  0  0  0  3  0  0  0  0  0  0
  -20.0960   17.9980  -27.1440 C   0  0  0  0  0  3  0  0  0  0  0  0
  -20.8290   18.2910  -26.0670 C   0  0  0  0  0  3  0  0  0  0  0  0
  -18.5790   21.3090  -27.8670 N   0  0  0  0  0  0  0  0  0  0  0  0
  -17.6180   21.1580  -28.0850 H   0  0  0  0  0  0  0  0  0  0  0  0
  -19.0380   22.1790  -28.0340 H   0  0  0  0  0  0  0  0  0  0  0  0
  -20.7130   15.5020  -22.7260 N   0  0  0  0  0  0  0  0  0  0  0  0
  -21.3410   15.8560  -23.4450 H   0  0  0  0  0  0  0  0  0  0  0  0
  -19.8230   14.4920  -23.0640 C   0  0  0  0  0  0  0  0  0  0  0  0
  -19.0120   13.9730  -22.3040 O   0  0  0  0  0  0  0  0  0  0  0  0
  -19.9560   14.0860  -24.4930 C   0  0  0  0  0  3  0  0  0  0  0  0
  -20.9520   14.5830  -25.2400 C   0  0  0  0  0  3  0  0  0  0  0  0
  -21.1740   14.2600  -26.6600 C   0  0  0  0  0  0  0  0  0  0  0  0
  -20.1210   13.8880  -27.4810 C   0  0  0  0  0  3  0  0  0  0  0  0
  -20.2550   13.5800  -28.7910 N   0  0  0  0  0  0  0  0  0  0  0  0
  -21.5070   13.6480  -29.2990 C   0  0  0  0  0  3  0  0  0  0  0  0
  -22.6240   14.0080  -28.5620 C   0  0  0  0  0  3  0  0  0  0  0  0
  -22.4450   14.3180  -27.2190 C   0  0  0  0  0  3  0  0  0  0  0  0
  2  1  1  0  0  0  0
  3  2  2  0  0  0  0
  4  3  1  0  0  0  0
  5 10  1  6  0  0  0
  5  4  1  0  0  0  0
  6 25  1  6  0  0  0
  6  5  1  0  0  0  0
  6  7  1  0  0  0  0
  7  8  2  0  0  0  0
  7  3  1  0  0  0  0
  8  9  1  0  0  0  0
  9  1  2  0  0  0  0
 11 10  1  0  0  0  0
 12 13  2  0  0  0  0
 12 10  1  0  0  0  0
 14 12  1  0  0  0  0
 15 14  1  0  0  0  0
 16 17  2  0  0  0  0
 16 15  1  0  0  0  0
 18 16  1  0  0  0  0
 19 18  2  0  0  0  0
 19 20  1  0  0  0  0
 20 21  2  0  0  0  0
 21 15  1  0  0  0  0
 22 18  1  0  0  0  0
 23 22  1  0  0  0  0
 24 22  1  0  0  0  0
 26 25  1  0  0  0  0
 27 25  1  0  0  0  0
 27 28  2  0  0  0  0
 29 27  1  0  0  0  0
 30 29  2  0  0  0  0
 31 30  1  0  0  0  0
 32 31  2  0  0  0  0
 33 32  1  0  0  0  0
 34 33  2  0  0  0  0
 34 35  1  0  0  0  0
 35 36  2  0  0  0  0
 36 31  1  0  0  0  0
M  END
>  <VSCORE>
 -7.6

>  <MODEL>
1

>  <TORSDO>
F 7

$$$$
24
 OpenBabel08042114533D

 39 42  0  0  1  0  0  0  0  0999 V2000
  -22.4520   13.4180  -28.2130 C   0  0  0  0  0  3  0  0  0  0  0  0
  -22.7740   14.4640  -27.3480 C   0  0  0  0  0  3  0  0  0  0  0  0
  -22.0060   15.6160  -27.3960 C   0  0  0  0  0  0  0  0  0  0  0  0
  -22.1430   16.8410  -26.5460 C   0  0  0  0  0  2  0  0  0  0  0  0
  -21.3450   17.8600  -27.3780 C   0  0  2  0  0  3  0  0  0  0  0  0
  -20.2320   17.0580  -28.0960 C   0  0  1  0  0  3  0  0  0  0  0  0
  -20.9250   15.7340  -28.2810 C   0  0  0  0  0  0  0  0  0  0  0  0
  -20.5950   14.6920  -29.1350 C   0  0  0  0  0  3  0  0  0  0  0  0
  -21.3710   13.5300  -29.1010 C   0  0  0  0  0  3  0  0  0  0  0  0
  -20.8280   18.9390  -26.5830 N   0  0  0  0  0  0  0  0  0  0  0  0
  -21.1510   19.8820  -26.7890 H   0  0  0  0  0  0  0  0  0  0  0  0
  -19.9460   18.7300  -25.5310 C   0  0  0  0  0  0  0  0  0  0  0  0
  -19.5190   17.6370  -25.1710 O   0  0  0  0  0  0  0  0  0  0  0  0
  -19.5610   20.0030  -24.8610 C   0  0  0  0  0  3  0  0  0  0  0  0
  -19.5550   21.1510  -25.5520 C   0  0  0  0  0  3  0  0  0  0  0  0
  -19.1950   22.4130  -24.9690 C   0  0  0  0  0  0  0  0  0  0  0  0
  -17.8810   23.0270  -25.2840 C   0  0  0  0  0  0  0  0  0  0  0  0
  -17.0670   22.4990  -26.0340 O   0  0  0  0  0  0  0  0  0  0  0  0
  -17.6710   24.2380  -24.6520 N   0  0  0  0  0  0  0  0  0  0  0  0
  -16.7910   24.7160  -24.8220 H   0  0  0  0  0  0  0  0  0  0  0  0
  -18.6060   24.8080  -23.8120 C   0  0  0  0  0  0  0  0  0  0  0  0
  -19.7540   24.2740  -23.5340 N   0  0  0  0  0  0  0  0  0  0  0  0
  -18.2180   26.1260  -23.2070 C   0  0  0  0  0  1  0  0  0  0  0  0
  -20.0170   23.0670  -24.1350 C   0  0  0  0  0  3  0  0  0  0  0  0
  -19.7690   17.7260  -29.3830 C   0  0  0  0  0  2  0  0  0  0  0  0
  -20.8930   18.0340  -30.2030 N   0  0  0  0  0  0  0  0  0  0  0  0
  -21.6720   17.3690  -30.2390 H   0  0  0  0  0  0  0  0  0  0  0  0
  -20.9950   19.2210  -30.9290 C   0  0  0  0  0  0  0  0  0  0  0  0
  -20.1500   20.1100  -30.9410 O   0  0  0  0  0  0  0  0  0  0  0  0
  -22.2650   19.3090  -31.7030 C   0  0  0  0  0  3  0  0  0  0  0  0
  -23.3790   18.7350  -31.2310 C   0  0  0  0  0  3  0  0  0  0  0  0
  -24.6360   18.7820  -31.9240 C   0  0  0  0  0  0  0  0  0  0  0  0
  -25.3400   17.5190  -32.2700 C   0  0  0  0  0  0  0  0  0  0  0  0
  -24.8910   16.4120  -31.9870 O   0  0  0  0  0  0  0  0  0  0  0  0
  -26.5340   17.7190  -32.9370 N   0  0  0  0  0  0  0  0  0  0  0  0
  -27.0800   16.9070  -33.2110 H   0  0  0  0  0  0  0  0  0  0  0  0
  -27.0030   18.9770  -33.2370 C   0  0  0  0  0  3  0  0  0  0  0  0
  -26.4010   20.0810  -32.9420 N   0  0  0  0  0  0  0  0  0  0  0  0
  -25.2060   19.9430  -32.2770 C   0  0  0  0  0  3  0  0  0  0  0  0
  1  2  1  0  0  0  0
  3  2  2  0  0  0  0
  3  4  1  0  0  0  0
  5 10  1  1  0  0  0
  5  4  1  0  0  0  0
  6 25  1  6  0  0  0
  6  5  1  0  0  0  0
  7  6  1  0  0  0  0
  7  3  1  0  0  0  0
  8  9  1  0  0  0  0
  8  7  2  0  0  0  0
  9  1  2  0  0  0  0
 10 12  1  0  0  0  0
 11 10  1  0  0  0  0
 12 13  2  0  0  0  0
 12 14  1  0  0  0  0
 15 16  1  0  0  0  0
 15 14  2  0  0  0  0
 16 24  2  0  0  0  0
 17 16  1  0  0  0  0
 17 19  1  0  0  0  0
 18 17  2  0  0  0  0
 19 21  1  0  0  0  0
 20 19  1  0  0  0  0
 21 22  2  0  0  0  0
 21 23  1  0  0  0  0
 24 22  1  0  0  0  0
 26 25  1  0  0  0  0
 27 26  1  0  0  0  0
 28 26  1  0  0  0  0
 29 28  2  0  0  0  0
 30 31  2  0  0  0  0
 30 28  1  0  0  0  0
 32 31  1  0  0  0  0
 33 34  2  0  0  0  0
 33 32  1  0  0  0  0
 35 33  1  0  0  0  0
 36 35  1  0  0  0  0
 37 38  2  0  0  0  0
 37 35  1  0  0  0  0
 38 39  1  0  0  0  0
 39 32  2  0  0  0  0
M  END
>  <VSCORE>
 -8.9

>  <MODEL>
1

>  <TORSDO>
F 7

$$$$
25
 OpenBabel08042114533D

 38 40  0  0  1  0  0  0  0  0999 V2000
  -20.2110   20.3160  -25.6070 C   0  0  1  0  0  3  0  0  0  0  0  0
  -16.7110   22.8030  -25.9690 C   0  0  0  0  0  3  0  0  0  0  0  0
  -16.7820   21.5940  -26.6610 C   0  0  0  0  0  3  0  0  0  0  0  0
  -17.9160   20.7890  -26.5440 C   0  0  0  0  0  3  0  0  0  0  0  0
  -18.9770   21.1930  -25.7350 C   0  0  0  0  0  0  0  0  0  0  0  0
  -18.9060   22.4020  -25.0420 C   0  0  0  0  0  3  0  0  0  0  0  0
  -17.7730   23.2070  -25.1590 C   0  0  0  0  0  3  0  0  0  0  0  0
  -20.6640   19.8780  -26.9070 N   0  0  0  0  0  0  0  0  0  0  0  0
  -20.0660   19.2390  -27.4240 H   0  0  0  0  0  0  0  0  0  0  0  0
  -21.8850   20.2670  -27.4320 C   0  0  0  0  0  0  0  0  0  0  0  0
  -22.6960   21.0020  -26.8780 O   0  0  0  0  0  0  0  0  0  0  0  0
  -22.1230   19.6790  -28.7790 C   0  0  0  0  0  3  0  0  0  0  0  0
  -23.1050   18.7870  -28.9570 C   0  0  0  0  0  3  0  0  0  0  0  0
  -23.3900   18.1800  -30.2280 C   0  0  0  0  0  0  0  0  0  0  0  0
  -24.2290   18.9010  -31.2230 C   0  0  0  0  0  0  0  0  0  0  0  0
  -24.6990   20.0130  -31.0090 O   0  0  0  0  0  0  0  0  0  0  0  0
  -24.4180   18.1950  -32.3960 N   0  0  0  0  0  0  0  0  0  0  0  0
  -24.9790   18.6160  -33.1310 H   0  0  0  0  0  0  0  0  0  0  0  0
  -23.8720   16.9480  -32.5980 C   0  0  0  0  0  3  0  0  0  0  0  0
  -23.1430   16.3120  -31.7410 N   0  0  0  0  0  0  0  0  0  0  0  0
  -22.9210   16.9670  -30.5540 C   0  0  0  0  0  3  0  0  0  0  0  0
  -19.9990   19.1020  -24.6890 C   0  0  0  0  0  2  0  0  0  0  0  0
  -20.4250   17.8750  -25.3080 N   0  0  0  0  0  0  0  0  0  0  0  0
  -20.4640   17.8430  -26.3250 H   0  0  0  0  0  0  0  0  0  0  0  0
  -20.7360   16.7420  -24.5710 C   0  0  0  0  0  0  0  0  0  0  0  0
  -20.6890   16.6560  -23.3490 O   0  0  0  0  0  0  0  0  0  0  0  0
  -21.1430   15.6030  -25.4410 C   0  0  0  0  0  3  0  0  0  0  0  0
  -20.9630   15.6730  -26.7650 C   0  0  0  0  0  3  0  0  0  0  0  0
  -21.3330   14.6140  -27.6630 C   0  0  0  0  0  0  0  0  0  0  0  0
  -20.3250   14.0460  -28.6110 C   0  0  0  0  0  0  0  0  0  0  0  0
  -19.1680   14.4570  -28.6510 O   0  0  0  0  0  0  0  0  0  0  0  0
  -20.7980   13.0280  -29.4310 N   0  0  0  0  0  0  0  0  0  0  0  0
  -20.1360   12.6240  -30.0880 H   0  0  0  0  0  0  0  0  0  0  0  0
  -22.0930   12.5080  -29.4410 C   0  0  0  0  0  0  0  0  0  0  0  0
  -22.4390   11.6010  -30.1990 O   0  0  0  0  0  0  0  0  0  0  0  0
  -22.9510   13.0970  -28.5290 N   0  0  0  0  0  0  0  0  0  0  0  0
  -23.9100   12.7660  -28.4840 H   0  0  0  0  0  0  0  0  0  0  0  0
  -22.5730   14.1050  -27.6850 C   0  0  0  0  0  3  0  0  0  0  0  0
  1 22  1  1  0  0  0
  2  7  1  0  0  0  0
  3  4  1  0  0  0  0
  3  2  2  0  0  0  0
  4  5  2  0  0  0  0
  5  1  1  0  0  0  0
  5  6  1  0  0  0  0
  7  6  2  0  0  0  0
  8  1  1  0  0  0  0
  9  8  1  0  0  0  0
 10  8  1  0  0  0  0
 10 11  2  0  0  0  0
 12 10  1  0  0  0  0
 13 12  2  0  0  0  0
 14 13  1  0  0  0  0
 15 16  2  0  0  0  0
 15 14  1  0  0  0  0
 17 15  1  0  0  0  0
 18 17  1  0  0  0  0
 19 17  1  0  0  0  0
 19 20  2  0  0  0  0
 20 21  1  0  0  0  0
 21 14  2  0  0  0  0
 23 22  1  0  0  0  0
 23 25  1  0  0  0  0
 24 23  1  0  0  0  0
 25 26  2  0  0  0  0
 27 25  1  0  0  0  0
 28 27  2  0  0  0  0
 29 28  1  0  0  0  0
 30 29  1  0  0  0  0
 31 30  2  0  0  0  0
 32 30  1  0  0  0  0
 33 32  1  0  0  0  0
 34 32  1  0  0  0  0
 34 36  1  0  0  0  0
 35 34  2  0  0  0  0
 36 37  1  0  0  0  0
 36 38  1  0  0  0  0
 38 29  2  0  0  0  0
M  END
>  <VSCORE>
 -8.2

>  <MODEL>
1

>  <TORSDO>
F 8

$$$$
26
 OpenBabel08042114533D

 36 39  0  0  1  0  0  0  0  0999 V2000
  -23.3300   14.7940  -30.7160 C   0  0  0  0  0  3  0  0  0  0  0  0
  -22.9090   13.9100  -29.7210 C   0  0  0  0  0  3  0  0  0  0  0  0
  -21.8970   14.3160  -28.8650 C   0  0  0  0  0  0  0  0  0  0  0  0
  -21.2640   13.5240  -27.7640 C   0  0  0  0  0  2  0  0  0  0  0  0
  -20.5400   14.6240  -26.9620 C   0  0  1  0  0  3  0  0  0  0  0  0
  -20.2000   15.7430  -27.9820 C   0  0  1  0  0  3  0  0  0  0  0  0
  -21.3000   15.5760  -28.9930 C   0  0  0  0  0  0  0  0  0  0  0  0
  -21.7020   16.4510  -29.9900 C   0  0  0  0  0  3  0  0  0  0  0  0
  -22.7300   16.0560  -30.8500 C   0  0  0  0  0  3  0  0  0  0  0  0
  -21.3780   15.0920  -25.8770 N   0  0  0  0  0  0  0  0  0  0  0  0
  -22.2890   15.4880  -26.1070 H   0  0  0  0  0  0  0  0  0  0  0  0
  -21.0070   15.0290  -24.5370 C   0  0  0  0  0  0  0  0  0  0  0  0
  -19.9430   14.5770  -24.1210 O   0  0  0  0  0  0  0  0  0  0  0  0
  -22.0780   15.5900  -23.6360 C   0  0  0  0  0  2  0  0  0  0  0  0
  -21.5540   16.7610  -22.9190 N   0  0  0  0  0  0  0  0  0  0  0  0
  -21.3830   17.9520  -23.6210 C   0  0  0  0  0  0  0  0  0  0  0  0
  -21.6320   18.1290  -24.8120 O   0  0  0  0  0  0  0  0  0  0  0  0
  -20.8460   19.0960  -22.8210 C   0  0  0  0  0  3  0  0  0  0  0  0
  -20.5590   18.9440  -21.5190 C   0  0  0  0  0  0  0  0  0  0  0  0
  -20.0200   20.0530  -20.6700 C   0  0  0  0  0  1  0  0  0  0  0  0
  -20.7710   17.6650  -20.8770 C   0  0  0  0  0  3  0  0  0  0  0  0
  -21.2520   16.6340  -21.5800 C   0  0  0  0  0  3  0  0  0  0  0  0
  -20.1270   17.0550  -27.4000 N   0  0  0  0  0  0  0  0  0  0  0  0
  -20.5930   17.2060  -26.5070 H   0  0  0  0  0  0  0  0  0  0  0  0
  -19.4190   18.0900  -27.9920 C   0  0  0  0  0  0  0  0  0  0  0  0
  -18.7930   18.0100  -29.0440 O   0  0  0  0  0  0  0  0  0  0  0  0
  -19.4910   19.3450  -27.1940 C   0  0  0  0  0  3  0  0  0  0  0  0
  -18.3870   20.0750  -26.9890 C   0  0  0  0  0  3  0  0  0  0  0  0
  -18.3860   21.2950  -26.2300 C   0  0  0  0  0  0  0  0  0  0  0  0
  -17.2290   22.2240  -26.3240 C   0  0  0  0  0  0  0  0  0  0  0  0
  -16.2540   21.9980  -27.0340 O   0  0  0  0  0  0  0  0  0  0  0  0
  -17.3650   23.3540  -25.5400 N   0  0  0  0  0  0  0  0  0  0  0  0
  -16.6190   24.0440  -25.5450 H   0  0  0  0  0  0  0  0  0  0  0  0
  -18.4750   23.5720  -24.7560 C   0  0  0  0  0  3  0  0  0  0  0  0
  -19.4860   22.7710  -24.6660 N   0  0  0  0  0  0  0  0  0  0  0  0
  -19.4040   21.6300  -25.4250 C   0  0  0  0  0  3  0  0  0  0  0  0
  1  2  1  0  0  0  0
  2  3  2  0  0  0  0
  3  4  1  0  0  0  0
  4  5  1  0  0  0  0
  5 10  1  1  0  0  0
  6 23  1  1  0  0  0
  6  5  1  0  0  0  0
  7  3  1  0  0  0  0
  7  6  1  0  0  0  0
  8  7  2  0  0  0  0
  9  1  2  0  0  0  0
  9  8  1  0  0  0  0
 10 12  1  0  0  0  0
 11 10  1  0  0  0  0
 12 13  2  0  0  0  0
 12 14  1  0  0  0  0
 14 15  1  0  0  0  0
 15 22  1  0  0  0  0
 16 15  1  0  0  0  0
 16 18  1  0  0  0  0
 17 16  2  0  0  0  0
 18 19  2  0  0  0  0
 19 21  1  0  0  0  0
 19 20  1  0  0  0  0
 22 21  2  0  0  0  0
 23 24  1  0  0  0  0
 25 23  1  0  0  0  0
 25 27  1  0  0  0  0
 26 25  2  0  0  0  0
 27 28  2  0  0  0  0
 28 29  1  0  0  0  0
 29 36  2  0  0  0  0
 30 29  1  0  0  0  0
 30 32  1  0  0  0  0
 31 30  2  0  0  0  0
 32 34  1  0  0  0  0
 33 32  1  0  0  0  0
 34 35  2  0  0  0  0
 36 35  1  0  0  0  0
M  END
>  <VSCORE>
 -8.8

>  <MODEL>
1

>  <TORSDO>
F 6

$$$$
27
 OpenBabel08042114533D

 38 41  0  0  1  0  0  0  0  0999 V2000
  -20.1570   18.9550  -29.7290 C   0  0  1  0  0  3  0  0  0  0  0  0
  -22.0870   12.7420  -29.3330 C   0  0  0  0  0  3  0  0  0  0  0  0
  -20.9270   13.3680  -28.8780 C   0  0  0  0  0  3  0  0  0  0  0  0
  -20.7260   14.7420  -29.0810 C   0  0  0  0  0  0  0  0  0  0  0  0
  -21.7160   15.4940  -29.7560 C   0  0  0  0  0  0  0  0  0  0  0  0
  -21.5150   16.8690  -29.9600 C   0  0  0  0  0  3  0  0  0  0  0  0
  -20.3540   17.4950  -29.5040 C   0  0  0  0  0  0  0  0  0  0  0  0
  -19.3800   16.7550  -28.8400 C   0  0  0  0  0  3  0  0  0  0  0  0
  -22.8790   14.8490  -30.2080 C   0  0  0  0  0  3  0  0  0  0  0  0
  -19.5630   15.3880  -28.6290 C   0  0  0  0  0  3  0  0  0  0  0  0
  -23.0620   13.4820  -29.9970 C   0  0  0  0  0  3  0  0  0  0  0  0
  -21.2780   19.5480  -30.4890 N   0  0  0  0  0  0  0  0  0  0  0  0
  -22.2090   19.4670  -30.1290 H   0  0  0  0  0  0  0  0  0  0  0  0
  -21.0760   20.2010  -31.6690 C   0  0  0  0  0  0  0  0  0  0  0  0
  -20.0140   20.3930  -32.2510 O   0  0  0  0  0  0  0  0  0  0  0  0
  -22.3440   20.6990  -32.2340 C   0  0  0  0  0  0  0  0  0  0  0  0
  -23.5030   20.0910  -31.8200 N   0  0  0  0  0  0  0  0  0  0  0  0
  -24.5890   20.5590  -32.3410 C   0  0  0  0  0  3  0  0  0  0  0  0
  -24.6440   21.5910  -33.2510 N   0  0  0  0  0  0  0  0  0  0  0  0
  -25.5490   21.8880  -33.6040 H   0  0  0  0  0  0  0  0  0  0  0  0
  -23.5070   22.2360  -33.6980 C   0  0  0  0  0  0  0  0  0  0  0  0
  -23.4930   23.1610  -34.5040 O   0  0  0  0  0  0  0  0  0  0  0  0
  -22.2510   21.7100  -33.1090 C   0  0  0  0  0  3  0  0  0  0  0  0
  -19.9450   19.7730  -28.4330 C   0  0  0  0  0  2  0  0  0  0  0  0
  -20.7090   19.2390  -27.3360 N   0  0  0  0  0  0  0  0  0  0  0  0
  -21.6860   19.0020  -27.5000 H   0  0  0  0  0  0  0  0  0  0  0  0
  -20.1840   19.0300  -26.0650 C   0  0  0  0  0  0  0  0  0  0  0  0
  -19.0270   19.2720  -25.7330 O   0  0  0  0  0  0  0  0  0  0  0  0
  -21.2180   18.4670  -25.1240 C   0  0  0  0  0  2  0  0  0  0  0  0
  -21.0230   17.0160  -24.9900 N   0  0  0  0  0  0  0  0  0  0  0  0
  -20.0740   16.5700  -24.0990 N   0  0  0  0  0  0  0  0  0  0  0  0
  -19.5560   17.2720  -23.5790 H   0  0  0  0  0  0  0  0  0  0  0  0
  -19.8270   15.2360  -23.9050 C   0  0  0  0  0  0  0  0  0  0  0  0
  -18.9880   14.8040  -23.1170 O   0  0  0  0  0  0  0  0  0  0  0  0
  -20.6340   14.2980  -24.7080 C   0  0  0  0  0  3  0  0  0  0  0  0
  -21.5480   14.7430  -25.5690 C   0  0  0  0  0  3  0  0  0  0  0  0
  -21.7940   16.1900  -25.7550 C   0  0  0  0  0  0  0  0  0  0  0  0
  -22.6510   16.5480  -26.5630 O   0  0  0  0  0  0  0  0  0  0  0  0
  1  7  1  0  0  0  0
  1 24  1  1  0  0  0
  2  3  1  0  0  0  0
  4  3  2  0  0  0  0
  4 10  1  0  0  0  0
  5  4  1  0  0  0  0
  6  5  1  0  0  0  0
  6  7  2  0  0  0  0
  7  8  1  0  0  0  0
  8 10  2  0  0  0  0
  9 11  1  0  0  0  0
  9  5  2  0  0  0  0
 11  2  2  0  0  0  0
 12 13  1  0  0  0  0
 12  1  1  0  0  0  0
 14 12  1  0  0  0  0
 15 14  2  0  0  0  0
 16 17  1  0  0  0  0
 16 14  1  0  0  0  0
 18 17  2  0  0  0  0
 19 18  1  0  0  0  0
 20 19  1  0  0  0  0
 21 19  1  0  0  0  0
 21 23  1  0  0  0  0
 22 21  2  0  0  0  0
 23 16  2  0  0  0  0
 24 25  1  0  0  0  0
 25 27  1  0  0  0  0
 26 25  1  0  0  0  0
 27 28  2  0  0  0  0
 27 29  1  0  0  0  0
 29 30  1  0  0  0  0
 30 31  1  0  0  0  0
 31 33  1  0  0  0  0
 31 32  1  0  0  0  0
 33 34  2  0  0  0  0
 35 33  1  0  0  0  0
 36 35  2  0  0  0  0
 37 36  1  0  0  0  0
 37 30  1  0  0  0  0
 38 37  2  0  0  0  0
M  END
>  <VSCORE>
 -8.9

>  <MODEL>
1

>  <TORSDO>
F 7

$$$$
28
 OpenBabel08042114533D

 36 39  0  0  1  0  0  0  0  0999 V2000
  -23.1920   14.7300  -30.4540 C   0  0  0  0  0  3  0  0  0  0  0  0
  -22.7580   13.8850  -29.4310 C   0  0  0  0  0  3  0  0  0  0  0  0
  -21.7550   14.3350  -28.5880 C   0  0  0  0  0  0  0  0  0  0  0  0
  -21.1100   13.5900  -27.4600 C   0  0  0  0  0  2  0  0  0  0  0  0
  -20.4070   14.7270  -26.6940 C   0  0  1  0  0  3  0  0  0  0  0  0
  -20.0840   15.8190  -27.7480 C   0  0  1  0  0  3  0  0  0  0  0  0
  -21.1780   15.6000  -28.7540 C   0  0  0  0  0  0  0  0  0  0  0  0
  -21.5930   16.4360  -29.7800 C   0  0  0  0  0  3  0  0  0  0  0  0
  -22.6130   15.9960  -30.6280 C   0  0  0  0  0  3  0  0  0  0  0  0
  -21.2550   15.2150  -25.6250 N   0  0  0  0  0  0  0  0  0  0  0  0
  -22.1380   15.6580  -25.8740 H   0  0  0  0  0  0  0  0  0  0  0  0
  -20.9280   15.1120  -24.2760 C   0  0  0  0  0  0  0  0  0  0  0  0
  -19.8990   14.6030  -23.8380 O   0  0  0  0  0  0  0  0  0  0  0  0
  -21.9970   15.7070  -23.3970 C   0  0  0  0  0  2  0  0  0  0  0  0
  -21.4970   16.9450  -22.7810 N   0  0  0  0  0  0  0  0  0  0  0  0
  -21.3820   18.0870  -23.5750 C   0  0  0  0  0  0  0  0  0  0  0  0
  -21.6640   18.1650  -24.7700 O   0  0  0  0  0  0  0  0  0  0  0  0
  -20.8660   19.3020  -22.8750 C   0  0  0  0  0  3  0  0  0  0  0  0
  -20.5540   19.2460  -21.5760 C   0  0  0  0  0  3  0  0  0  0  0  0
  -20.7040   18.0260  -20.8310 C   0  0  0  0  0  3  0  0  0  0  0  0
  -21.1630   16.9280  -21.4430 C   0  0  0  0  0  3  0  0  0  0  0  0
  -20.0340   17.1490  -27.2080 N   0  0  0  0  0  0  0  0  0  0  0  0
  -20.4570   17.3090  -26.2960 H   0  0  0  0  0  0  0  0  0  0  0  0
  -19.4020   18.1930  -27.8680 C   0  0  0  0  0  0  0  0  0  0  0  0
  -18.8310   18.1060  -28.9500 O   0  0  0  0  0  0  0  0  0  0  0  0
  -19.4830   19.4680  -27.1030 C   0  0  0  0  0  3  0  0  0  0  0  0
  -18.3700   20.1660  -26.8410 C   0  0  0  0  0  3  0  0  0  0  0  0
  -18.3760   21.4020  -26.1100 C   0  0  0  0  0  0  0  0  0  0  0  0
  -17.1890   22.2940  -26.1530 C   0  0  0  0  0  0  0  0  0  0  0  0
  -16.1800   22.0230  -26.7950 O   0  0  0  0  0  0  0  0  0  0  0  0
  -17.3370   23.4470  -25.4030 N   0  0  0  0  0  0  0  0  0  0  0  0
  -16.5630   24.1040  -25.3850 H   0  0  0  0  0  0  0  0  0  0  0  0
  -18.4850   23.7250  -24.6890 C   0  0  0  0  0  0  0  0  0  0  0  0
  -19.5230   22.9480  -24.6500 N   0  0  0  0  0  0  0  0  0  0  0  0
  -18.4780   25.0190  -23.9290 C   0  0  0  0  0  1  0  0  0  0  0  0
  -19.4310   21.7880  -25.3770 C   0  0  0  0  0  3  0  0  0  0  0  0
  1  2  1  0  0  0  0
  2  3  2  0  0  0  0
  3  4  1  0  0  0  0
  4  5  1  0  0  0  0
  5 10  1  1  0  0  0
  6 22  1  1  0  0  0
  6  5  1  0  0  0  0
  7  3  1  0  0  0  0
  7  6  1  0  0  0  0
  8  7  2  0  0  0  0
  9  1  2  0  0  0  0
  9  8  1  0  0  0  0
 10 12  1  0  0  0  0
 11 10  1  0  0  0  0
 12 13  2  0  0  0  0
 12 14  1  0  0  0  0
 14 15  1  0  0  0  0
 15 21  1  0  0  0  0
 16 18  1  0  0  0  0
 16 15  1  0  0  0  0
 17 16  2  0  0  0  0
 18 19  2  0  0  0  0
 19 20  1  0  0  0  0
 21 20  2  0  0  0  0
 22 23  1  0  0  0  0
 24 22  1  0  0  0  0
 24 26  1  0  0  0  0
 25 24  2  0  0  0  0
 26 27  2  0  0  0  0
 27 28  1  0  0  0  0
 28 36  2  0  0  0  0
 29 28  1  0  0  0  0
 29 31  1  0  0  0  0
 30 29  2  0  0  0  0
 31 32  1  0  0  0  0
 31 33  1  0  0  0  0
 33 34  2  0  0  0  0
 33 35  1  0  0  0  0
 36 34  1  0  0  0  0
M  END
>  <VSCORE>
 -8.8

>  <MODEL>
1

>  <TORSDO>
F 6

$$$$
29
 OpenBabel08042114533D

 37 40  0  0  1  0  0  0  0  0999 V2000
  -17.5500   23.4440  -25.2570 C   0  0  0  0  0  3  0  0  0  0  0  0
  -17.1490   22.5370  -26.2380 C   0  0  0  0  0  3  0  0  0  0  0  0
  -17.9150   21.3990  -26.4350 C   0  0  0  0  0  0  0  0  0  0  0  0
  -17.6590   20.2810  -27.3980 C   0  0  0  0  0  2  0  0  0  0  0  0
  -19.0460   19.6170  -27.4410 C   0  0  2  0  0  3  0  0  0  0  0  0
  -19.6740   19.8290  -26.0420 C   0  0  1  0  0  3  0  0  0  0  0  0
  -19.0590   21.1510  -25.6650 C   0  0  0  0  0  0  0  0  0  0  0  0
  -19.4550   22.0440  -24.6800 C   0  0  0  0  0  3  0  0  0  0  0  0
  -18.6950   23.2000  -24.4830 C   0  0  0  0  0  3  0  0  0  0  0  0
  -18.9830   18.2320  -27.8180 N   0  0  0  0  0  0  0  0  0  0  0  0
  -18.3420   17.6220  -27.3100 H   0  0  0  0  0  0  0  0  0  0  0  0
  -19.7500   17.6770  -28.8390 C   0  0  0  0  0  0  0  0  0  0  0  0
  -20.5580   18.2950  -29.5260 O   0  0  0  0  0  0  0  0  0  0  0  0
  -19.4690   16.2060  -29.0090 C   0  0  0  0  0  2  0  0  0  0  0  0
  -20.5810   15.4240  -28.4520 N   0  0  0  0  0  0  0  0  0  0  0  0
  -21.6650   15.1240  -29.2760 C   0  0  0  0  0  0  0  0  0  0  0  0
  -21.7880   15.4540  -30.4560 O   0  0  0  0  0  0  0  0  0  0  0  0
  -22.7570   14.3270  -28.6350 C   0  0  0  0  0  3  0  0  0  0  0  0
  -22.6480   13.9530  -27.3550 C   0  0  0  0  0  3  0  0  0  0  0  0
  -21.4940   14.3060  -26.5750 C   0  0  0  0  0  3  0  0  0  0  0  0
  -20.5100   15.0200  -27.1340 C   0  0  0  0  0  3  0  0  0  0  0  0
  -21.1960   19.8160  -26.0770 C   0  0  0  0  0  2  0  0  0  0  0  0
  -21.6970   18.8820  -25.1240 N   0  0  0  0  0  0  0  0  0  0  0  0
  -21.4980   19.0390  -24.1310 H   0  0  0  0  0  0  0  0  0  0  0  0
  -22.4790   17.7840  -25.4810 C   0  0  0  0  0  0  0  0  0  0  0  0
  -22.8160   17.5070  -26.6280 O   0  0  0  0  0  0  0  0  0  0  0  0
  -22.8820   16.9630  -24.3060 C   0  0  0  0  0  3  0  0  0  0  0  0
  -21.9490   16.4700  -23.4810 C   0  0  0  0  0  3  0  0  0  0  0  0
  -22.2660   15.6710  -22.3310 C   0  0  0  0  0  0  0  0  0  0  0  0
  -21.6200   14.3480  -22.1450 C   0  0  0  0  0  0  0  0  0  0  0  0
  -20.8090   13.8900  -22.9450 O   0  0  0  0  0  0  0  0  0  0  0  0
  -22.0210   13.6920  -20.9950 N   0  0  0  0  0  0  0  0  0  0  0  0
  -21.6170   12.7800  -20.8040 H   0  0  0  0  0  0  0  0  0  0  0  0
  -22.9350   14.2330  -20.1140 C   0  0  0  0  0  0  0  0  0  0  0  0
  -23.5010   15.3880  -20.2740 N   0  0  0  0  0  0  0  0  0  0  0  0
  -23.2590   13.3890  -18.9160 C   0  0  0  0  0  1  0  0  0  0  0  0
  -23.1400   16.0840  -21.4010 C   0  0  0  0  0  3  0  0  0  0  0  0
  1  9  1  0  0  0  0
  2  1  2  0  0  0  0
  3  2  1  0  0  0  0
  3  7  2  0  0  0  0
  4  3  1  0  0  0  0
  5 10  1  1  0  0  0
  5  4  1  0  0  0  0
  5  6  1  0  0  0  0
  6 22  1  6  0  0  0
  6  7  1  0  0  0  0
  7  8  1  0  0  0  0
  8  9  2  0  0  0  0
 10 11  1  0  0  0  0
 12 10  1  0  0  0  0
 13 12  2  0  0  0  0
 14 12  1  0  0  0  0
 14 15  1  0  0  0  0
 15 21  1  0  0  0  0
 16 18  1  0  0  0  0
 16 15  1  0  0  0  0
 17 16  2  0  0  0  0
 18 19  2  0  0  0  0
 19 20  1  0  0  0  0
 21 20  2  0  0  0  0
 22 23  1  0  0  0  0
 23 24  1  0  0  0  0
 25 23  1  0  0  0  0
 25 27  1  0  0  0  0
 26 25  2  0  0  0  0
 27 28  2  0  0  0  0
 28 29  1  0  0  0  0
 29 30  1  0  0  0  0
 29 37  2  0  0  0  0
 30 32  1  0  0  0  0
 31 30  2  0  0  0  0
 32 33  1  0  0  0  0
 32 34  1  0  0  0  0
 34 36  1  0  0  0  0
 35 34  2  0  0  0  0
 37 35  1  0  0  0  0
M  END
>  <VSCORE>
 -8.1

>  <MODEL>
1

>  <TORSDO>
F 7

$$$$
2
 OpenBabel08042114533D

 41 44  0  0  1  0  0  0  0  0999 V2000
  -20.7810   15.1660  -28.2870 C   0  0  1  0  0  3  0  0  0  0  0  0
  -21.5760   14.9900  -21.8200 C   0  0  0  0  0  3  0  0  0  0  0  0
  -22.3020   15.6510  -22.8100 C   0  0  0  0  0  3  0  0  0  0  0  0
  -21.9370   15.5400  -24.1620 C   0  0  0  0  0  0  0  0  0  0  0  0
  -20.8200   14.7460  -24.5140 C   0  0  0  0  0  0  0  0  0  0  0  0
  -20.4550   14.6340  -25.8660 C   0  0  0  0  0  3  0  0  0  0  0  0
  -21.1820   15.2950  -26.8560 C   0  0  0  0  0  0  0  0  0  0  0  0
  -22.2810   16.0770  -26.5090 C   0  0  0  0  0  3  0  0  0  0  0  0
  -20.1010   14.0870  -23.5040 C   0  0  0  0  0  3  0  0  0  0  0  0
  -22.6580   16.1990  -25.1720 C   0  0  0  0  0  3  0  0  0  0  0  0
  -20.4770   14.2100  -22.1660 C   0  0  0  0  0  3  0  0  0  0  0  0
  -21.8330   15.6640  -29.1980 N   0  0  0  0  0  0  0  0  0  0  0  0
  -22.0810   16.6280  -29.0960 H   0  0  0  0  0  0  0  0  0  0  0  0
  -22.3890   14.8470  -30.1430 C   0  0  0  0  0  0  0  0  0  0  0  0
  -22.1110   13.6710  -30.3490 O   0  0  0  0  0  0  0  0  0  0  0  0
  -23.4160   15.5800  -30.9330 C   0  0  0  0  0  3  0  0  0  0  0  0
  -23.4400   16.9190  -30.9250 C   0  0  0  0  0  3  0  0  0  0  0  0
  -24.4020   17.6900  -31.6630 C   0  0  0  0  0  0  0  0  0  0  0  0
  -24.1190   19.1120  -31.9900 C   0  0  0  0  0  0  0  0  0  0  0  0
  -23.0810   19.6750  -31.6560 O   0  0  0  0  0  0  0  0  0  0  0  0
  -25.1330   19.7250  -32.7010 N   0  0  0  0  0  0  0  0  0  0  0  0
  -25.0220   20.7000  -32.9670 H   0  0  0  0  0  0  0  0  0  0  0  0
  -26.2840   19.0600  -33.0580 C   0  0  0  0  0  3  0  0  0  0  0  0
  -26.5410   17.8250  -32.7790 N   0  0  0  0  0  0  0  0  0  0  0  0
  -25.5660   17.1630  -32.0730 C   0  0  0  0  0  3  0  0  0  0  0  0
  -19.4460   15.8660  -28.6360 C   0  0  0  0  0  2  0  0  0  0  0  0
  -19.4250   17.2300  -28.1750 N   0  0  0  0  0  0  0  0  0  0  0  0
  -18.9770   17.4250  -27.2820 H   0  0  0  0  0  0  0  0  0  0  0  0
  -19.9540   18.2730  -28.9220 C   0  0  0  0  0  0  0  0  0  0  0  0
  -20.4820   18.1590  -30.0230 O   0  0  0  0  0  0  0  0  0  0  0  0
  -19.8070   19.5850  -28.2340 C   0  0  0  0  0  3  0  0  0  0  0  0
  -19.1130   19.6690  -27.0910 C   0  0  0  0  0  3  0  0  0  0  0  0
  -18.9320   20.9000  -26.3740 C   0  0  0  0  0  0  0  0  0  0  0  0
  -17.7180   21.7220  -26.6080 C   0  0  0  0  0  0  0  0  0  0  0  0
  -16.8410   21.3960  -27.4000 O   0  0  0  0  0  0  0  0  0  0  0  0
  -17.6800   22.8790  -25.8500 N   0  0  0  0  0  0  0  0  0  0  0  0
  -16.8760   23.4910  -25.9590 H   0  0  0  0  0  0  0  0  0  0  0  0
  -18.6830   23.2200  -24.9660 C   0  0  0  0  0  0  0  0  0  0  0  0
  -19.7450   22.5030  -24.7600 N   0  0  0  0  0  0  0  0  0  0  0  0
  -18.4830   24.5080  -24.2220 C   0  0  0  0  0  1  0  0  0  0  0  0
  -19.8350   21.3420  -25.4870 C   0  0  0  0  0  3  0  0  0  0  0  0
  1 26  1  1  0  0  0
  1  7  1  0  0  0  0
  3  2  2  0  0  0  0
  4  3  1  0  0  0  0
  5  4  1  0  0  0  0
  5  9  1  0  0  0  0
  6  5  2  0  0  0  0
  7  8  2  0  0  0  0
  7  6  1  0  0  0  0
  8 10  1  0  0  0  0
  9 11  2  0  0  0  0
 10  4  2  0  0  0  0
 11  2  1  0  0  0  0
 12 13  1  0  0  0  0
 12  1  1  0  0  0  0
 14 12  1  0  0  0  0
 15 14  2  0  0  0  0
 16 17  2  0  0  0  0
 16 14  1  0  0  0  0
 18 17  1  0  0  0  0
 19 18  1  0  0  0  0
 19 20  2  0  0  0  0
 21 19  1  0  0  0  0
 22 21  1  0  0  0  0
 23 24  2  0  0  0  0
 23 21  1  0  0  0  0
 24 25  1  0  0  0  0
 25 18  2  0  0  0  0
 26 27  1  0  0  0  0
 27 28  1  0  0  0  0
 29 31  1  0  0  0  0
 29 27  1  0  0  0  0
 30 29  2  0  0  0  0
 31 32  2  0  0  0  0
 32 33  1  0  0  0  0
 33 41  2  0  0  0  0
 34 33  1  0  0  0  0
 34 36  1  0  0  0  0
 35 34  2  0  0  0  0
 36 38  1  0  0  0  0
 37 36  1  0  0  0  0
 38 39  2  0  0  0  0
 38 40  1  0  0  0  0
 41 39  1  0  0  0  0
M  END
>  <VSCORE>
 -9.3

>  <MODEL>
1

>  <TORSDO>
F 8

$$$$
30
 OpenBabel08042114533D

 41 45  0  0  1  0  0  0  0  0999 V2000
  -21.3410   16.0030  -24.9150 C   0  0  1  0  0  3  0  0  0  0  0  0
  -23.3230   14.4810  -18.8960 C   0  0  0  0  0  3  0  0  0  0  0  0
  -22.4310   13.8360  -19.7520 C   0  0  0  0  0  3  0  0  0  0  0  0
  -22.1540   14.3590  -21.0260 C   0  0  0  0  0  0  0  0  0  0  0  0
  -22.7920   15.5540  -21.4350 C   0  0  0  0  0  0  0  0  0  0  0  0
  -22.5150   16.0780  -22.7090 C   0  0  0  0  0  3  0  0  0  0  0  0
  -21.6240   15.4330  -23.5660 C   0  0  0  0  0  0  0  0  0  0  0  0
  -20.9960   14.2570  -23.1620 C   0  0  0  0  0  3  0  0  0  0  0  0
  -23.6870   16.1900  -20.5600 C   0  0  0  0  0  3  0  0  0  0  0  0
  -21.2600   13.7230  -21.9000 C   0  0  0  0  0  3  0  0  0  0  0  0
  -23.9490   15.6560  -19.2980 C   0  0  0  0  0  3  0  0  0  0  0  0
  -21.6650   15.0450  -25.9940 N   0  0  0  0  0  0  0  0  0  0  0  0
  -22.5910   14.6660  -26.0420 H   0  0  0  0  0  0  0  0  0  0  0  0
  -20.7410   14.6590  -26.9270 C   0  0  0  0  0  0  0  0  0  0  0  0
  -19.5740   15.0360  -26.9950 O   0  0  0  0  0  0  0  0  0  0  0  0
  -21.3530   13.6780  -27.8930 C   0  0  0  0  0  2  0  0  0  0  0  0
  -21.8960   14.4000  -29.0530 N   0  0  0  0  0  0  0  0  0  0  0  0
  -21.5590   15.7250  -29.2050 N   0  0  0  0  0  0  0  0  0  0  0  0
  -20.9510   16.1360  -28.5040 H   0  0  0  0  0  0  0  0  0  0  0  0
  -22.0180   16.4770  -30.2570 C   0  0  0  0  0  0  0  0  0  0  0  0
  -21.7360   17.6620  -30.4230 O   0  0  0  0  0  0  0  0  0  0  0  0
  -22.8960   15.7860  -31.2200 C   0  0  0  0  0  3  0  0  0  0  0  0
  -23.2160   14.5020  -31.0600 C   0  0  0  0  0  3  0  0  0  0  0  0
  -22.7050   13.7170  -29.9150 C   0  0  0  0  0  0  0  0  0  0  0  0
  -23.0280   12.5340  -29.8130 O   0  0  0  0  0  0  0  0  0  0  0  0
  -22.0650   17.3410  -25.2010 C   0  0  0  0  0  2  0  0  0  0  0  0
  -21.1550   18.4560  -25.1550 N   0  0  0  0  0  0  0  0  0  0  0  0
  -20.9770   18.8770  -24.2460 H   0  0  0  0  0  0  0  0  0  0  0  0
  -20.4690   18.9080  -26.2750 C   0  0  0  0  0  0  0  0  0  0  0  0
  -20.5620   18.4180  -27.3980 O   0  0  0  0  0  0  0  0  0  0  0  0
  -19.5480   20.0540  -26.0580 C   0  0  0  0  0  0  0  0  0  0  0  0
  -18.3060   20.0020  -26.5420 N   0  0  0  0  0  0  0  0  0  0  0  0
  -17.7510   21.1830  -26.1710 N   0  0  0  0  0  0  0  0  0  0  0  0
  -16.4630   21.6530  -26.4170 C   0  0  0  0  0  3  0  0  0  0  0  0
  -16.0960   22.8600  -25.9630 C   0  0  0  0  0  3  0  0  0  0  0  0
  -16.9740   23.6520  -25.2500 N   0  0  0  0  0  0  0  0  0  0  0  0
  -16.6480   24.5590  -24.9280 H   0  0  0  0  0  0  0  0  0  0  0  0
  -18.2880   23.2750  -24.9480 C   0  0  0  0  0  0  0  0  0  0  0  0
  -19.0520   23.9980  -24.3130 O   0  0  0  0  0  0  0  0  0  0  0  0
  -18.6520   21.9640  -25.4550 C   0  0  0  0  0  0  0  0  0  0  0  0
  -19.8220   21.2470  -25.3720 C   0  0  0  0  0  3  0  0  0  0  0  0
  1 26  1  6  0  0  0
  1  7  1  0  0  0  0
  3  2  2  0  0  0  0
  4  3  1  0  0  0  0
  5  4  1  0  0  0  0
  5  9  1  0  0  0  0
  6  5  2  0  0  0  0
  7  8  2  0  0  0  0
  7  6  1  0  0  0  0
  8 10  1  0  0  0  0
  9 11  2  0  0  0  0
 10  4  2  0  0  0  0
 11  2  1  0  0  0  0
 12  1  1  0  0  0  0
 13 12  1  0  0  0  0
 14 12  1  0  0  0  0
 15 14  2  0  0  0  0
 16 14  1  0  0  0  0
 17 16  1  0  0  0  0
 18 17  1  0  0  0  0
 18 19  1  0  0  0  0
 20 18  1  0  0  0  0
 21 20  2  0  0  0  0
 22 23  2  0  0  0  0
 22 20  1  0  0  0  0
 23 24  1  0  0  0  0
 24 25  2  0  0  0  0
 24 17  1  0  0  0  0
 26 27  1  0  0  0  0
 27 28  1  0  0  0  0
 29 31  1  0  0  0  0
 29 27  1  0  0  0  0
 30 29  2  0  0  0  0
 31 41  1  0  0  0  0
 32 33  1  0  0  0  0
 32 31  2  0  0  0  0
 33 40  1  0  0  0  0
 34 33  1  0  0  0  0
 34 35  2  0  0  0  0
 35 36  1  0  0  0  0
 36 38  1  0  0  0  0
 36 37  1  0  0  0  0
 38 39  2  0  0  0  0
 40 41  2  0  0  0  0
 40 38  1  0  0  0  0
M  END
>  <VSCORE>
 -9.3

>  <MODEL>
1

>  <TORSDO>
F 7

$$$$
31
 OpenBabel08042114533D

 38 41  0  0  1  0  0  0  0  0999 V2000
  -20.1010   18.9880  -29.7280 C   0  0  1  0  0  3  0  0  0  0  0  0
  -22.1170   12.8020  -29.3570 C   0  0  0  0  0  3  0  0  0  0  0  0
  -20.9470   13.4090  -28.8980 C   0  0  0  0  0  3  0  0  0  0  0  0
  -20.7270   14.7820  -29.0960 C   0  0  0  0  0  0  0  0  0  0  0  0
  -21.7070   15.5490  -29.7710 C   0  0  0  0  0  0  0  0  0  0  0  0
  -21.4870   16.9210  -29.9690 C   0  0  0  0  0  3  0  0  0  0  0  0
  -20.3180   17.5300  -29.5100 C   0  0  0  0  0  0  0  0  0  0  0  0
  -19.3550   16.7750  -28.8460 C   0  0  0  0  0  3  0  0  0  0  0  0
  -22.8770   14.9210  -30.2260 C   0  0  0  0  0  3  0  0  0  0  0  0
  -19.5570   15.4100  -28.6400 C   0  0  0  0  0  3  0  0  0  0  0  0
  -23.0800   13.5560  -30.0210 C   0  0  0  0  0  3  0  0  0  0  0  0
  -21.2020   19.5960  -30.5050 N   0  0  0  0  0  0  0  0  0  0  0  0
  -22.1320   19.5750  -30.1330 H   0  0  0  0  0  0  0  0  0  0  0  0
  -20.9840   20.1840  -31.7150 C   0  0  0  0  0  0  0  0  0  0  0  0
  -19.9210   20.2980  -32.3160 O   0  0  0  0  0  0  0  0  0  0  0  0
  -22.2330   20.7120  -32.2930 C   0  0  0  0  0  0  0  0  0  0  0  0
  -22.1720   21.7410  -33.1880 N   0  0  0  0  0  0  0  0  0  0  0  0
  -21.2690   22.1280  -33.4420 H   0  0  0  0  0  0  0  0  0  0  0  0
  -23.3140   22.2620  -33.7510 C   0  0  0  0  0  0  0  0  0  0  0  0
  -23.3940   23.1750  -34.5580 O   0  0  0  0  0  0  0  0  0  0  0  0
  -24.5850   21.6030  -33.2900 C   0  0  0  0  0  3  0  0  0  0  0  0
  -24.6220   20.6270  -32.4390 N   0  0  0  0  0  0  0  0  0  0  0  0
  -23.4160   20.1910  -31.9460 C   0  0  0  0  0  3  0  0  0  0  0  0
  -19.9010   19.8010  -28.4260 C   0  0  0  0  0  2  0  0  0  0  0  0
  -20.6800   19.2680  -27.3400 N   0  0  0  0  0  0  0  0  0  0  0  0
  -21.6550   19.0340  -27.5150 H   0  0  0  0  0  0  0  0  0  0  0  0
  -20.1710   19.0530  -26.0630 C   0  0  0  0  0  0  0  0  0  0  0  0
  -19.0160   19.2890  -25.7170 O   0  0  0  0  0  0  0  0  0  0  0  0
  -21.2170   18.4900  -25.1370 C   0  0  0  0  0  2  0  0  0  0  0  0
  -21.0320   17.0370  -25.0090 N   0  0  0  0  0  0  0  0  0  0  0  0
  -20.0850   16.5800  -24.1210 N   0  0  0  0  0  0  0  0  0  0  0  0
  -19.5610   17.2750  -23.5980 H   0  0  0  0  0  0  0  0  0  0  0  0
  -19.8470   15.2430  -23.9350 C   0  0  0  0  0  0  0  0  0  0  0  0
  -19.0110   14.8010  -23.1500 O   0  0  0  0  0  0  0  0  0  0  0  0
  -20.6610   14.3150  -24.7430 C   0  0  0  0  0  3  0  0  0  0  0  0
  -21.5740   14.7720  -25.6010 C   0  0  0  0  0  3  0  0  0  0  0  0
  -21.8100   16.2190  -25.7790 C   0  0  0  0  0  0  0  0  0  0  0  0
  -22.6640   16.5890  -26.5820 O   0  0  0  0  0  0  0  0  0  0  0  0
  1  7  1  0  0  0  0
  1 24  1  1  0  0  0
  2  3  1  0  0  0  0
  4  3  2  0  0  0  0
  4 10  1  0  0  0  0
  5  4  1  0  0  0  0
  6  5  1  0  0  0  0
  6  7  2  0  0  0  0
  7  8  1  0  0  0  0
  8 10  2  0  0  0  0
  9 11  1  0  0  0  0
  9  5  2  0  0  0  0
 11  2  2  0  0  0  0
 12 13  1  0  0  0  0
 12  1  1  0  0  0  0
 14 12  1  0  0  0  0
 15 14  2  0  0  0  0
 16 23  2  0  0  0  0
 16 14  1  0  0  0  0
 17 16  1  0  0  0  0
 18 17  1  0  0  0  0
 19 21  1  0  0  0  0
 19 17  1  0  0  0  0
 20 19  2  0  0  0  0
 21 22  2  0  0  0  0
 22 23  1  0  0  0  0
 24 25  1  0  0  0  0
 25 27  1  0  0  0  0
 26 25  1  0  0  0  0
 27 28  2  0  0  0  0
 27 29  1  0  0  0  0
 29 30  1  0  0  0  0
 30 31  1  0  0  0  0
 31 33  1  0  0  0  0
 31 32  1  0  0  0  0
 33 34  2  0  0  0  0
 35 33  1  0  0  0  0
 36 35  2  0  0  0  0
 37 36  1  0  0  0  0
 37 30  1  0  0  0  0
 38 37  2  0  0  0  0
M  END
>  <VSCORE>
 -8.9

>  <MODEL>
1

>  <TORSDO>
F 7

$$$$
32
 OpenBabel08042114533D

 38 41  0  0  1  0  0  0  0  0999 V2000
  -20.1270   18.9670  -29.7320 C   0  0  1  0  0  3  0  0  0  0  0  0
  -22.0910   12.7640  -29.3610 C   0  0  0  0  0  3  0  0  0  0  0  0
  -20.9190   13.3780  -28.9180 C   0  0  0  0  0  3  0  0  0  0  0  0
  -20.7120   14.7530  -29.1120 C   0  0  0  0  0  0  0  0  0  0  0  0
  -21.7080   15.5160  -29.7660 C   0  0  0  0  0  0  0  0  0  0  0  0
  -21.5020   16.8920  -29.9600 C   0  0  0  0  0  3  0  0  0  0  0  0
  -20.3300   17.5060  -29.5170 C   0  0  0  0  0  0  0  0  0  0  0  0
  -19.3500   16.7550  -28.8750 C   0  0  0  0  0  3  0  0  0  0  0  0
  -22.8820   14.8830  -30.2050 C   0  0  0  0  0  3  0  0  0  0  0  0
  -19.5380   15.3870  -28.6740 C   0  0  0  0  0  3  0  0  0  0  0  0
  -23.0700   13.5150  -30.0030 C   0  0  0  0  0  3  0  0  0  0  0  0
  -21.2470   19.5700  -30.4850 N   0  0  0  0  0  0  0  0  0  0  0  0
  -22.1670   19.5490  -30.0910 H   0  0  0  0  0  0  0  0  0  0  0  0
  -21.0580   20.1540  -31.7030 C   0  0  0  0  0  0  0  0  0  0  0  0
  -20.0100   20.2690  -32.3280 O   0  0  0  0  0  0  0  0  0  0  0  0
  -22.3220   20.6790  -32.2520 C   0  0  0  0  0  0  0  0  0  0  0  0
  -22.2820   21.7760  -33.0170 C   0  0  0  0  0  3  0  0  0  0  0  0
  -23.4360   22.2980  -33.5480 N   0  0  0  0  0  0  0  0  0  0  0  0
  -23.3660   23.1320  -34.1240 H   0  0  0  0  0  0  0  0  0  0  0  0
  -24.6920   21.7490  -33.3410 C   0  0  0  0  0  0  0  0  0  0  0  0
  -25.7310   22.2060  -33.8120 O   0  0  0  0  0  0  0  0  0  0  0  0
  -24.7270   20.5250  -32.4870 C   0  0  0  0  0  3  0  0  0  0  0  0
  -23.5860   20.0370  -31.9800 C   0  0  0  0  0  3  0  0  0  0  0  0
  -19.9070   19.7750  -28.4310 C   0  0  0  0  0  2  0  0  0  0  0  0
  -20.6750   19.2400  -27.3370 N   0  0  0  0  0  0  0  0  0  0  0  0
  -21.6590   19.0300  -27.4950 H   0  0  0  0  0  0  0  0  0  0  0  0
  -20.1430   18.9920  -26.0760 C   0  0  0  0  0  0  0  0  0  0  0  0
  -18.9770   19.1970  -25.7500 O   0  0  0  0  0  0  0  0  0  0  0  0
  -21.1820   18.4370  -25.1360 C   0  0  0  0  0  2  0  0  0  0  0  0
  -20.9910   16.9870  -24.9900 N   0  0  0  0  0  0  0  0  0  0  0  0
  -20.0650   16.5440  -24.0740 N   0  0  0  0  0  0  0  0  0  0  0  0
  -19.5600   17.2480  -23.5450 H   0  0  0  0  0  0  0  0  0  0  0  0
  -19.8220   15.2110  -23.8690 C   0  0  0  0  0  0  0  0  0  0  0  0
  -19.0040   14.7820  -23.0590 O   0  0  0  0  0  0  0  0  0  0  0  0
  -20.6090   14.2700  -24.6890 C   0  0  0  0  0  3  0  0  0  0  0  0
  -21.5010   14.7120  -25.5740 C   0  0  0  0  0  3  0  0  0  0  0  0
  -21.7420   16.1570  -25.7720 C   0  0  0  0  0  0  0  0  0  0  0  0
  -22.5790   16.5120  -26.6020 O   0  0  0  0  0  0  0  0  0  0  0  0
  1  7  1  0  0  0  0
  1 24  1  1  0  0  0
  2  3  1  0  0  0  0
  4  3  2  0  0  0  0
  4 10  1  0  0  0  0
  5  4  1  0  0  0  0
  6  5  1  0  0  0  0
  6  7  2  0  0  0  0
  7  8  1  0  0  0  0
  8 10  2  0  0  0  0
  9 11  1  0  0  0  0
  9  5  2  0  0  0  0
 11  2  2  0  0  0  0
 12 13  1  0  0  0  0
 12  1  1  0  0  0  0
 14 12  1  0  0  0  0
 15 14  2  0  0  0  0
 16 23  1  0  0  0  0
 16 14  1  0  0  0  0
 17 16  2  0  0  0  0
 18 20  1  0  0  0  0
 18 17  1  0  0  0  0
 19 18  1  0  0  0  0
 20 22  1  0  0  0  0
 21 20  2  0  0  0  0
 22 23  2  0  0  0  0
 24 25  1  0  0  0  0
 25 27  1  0  0  0  0
 26 25  1  0  0  0  0
 27 28  2  0  0  0  0
 27 29  1  0  0  0  0
 29 30  1  0  0  0  0
 30 31  1  0  0  0  0
 31 33  1  0  0  0  0
 31 32  1  0  0  0  0
 33 34  2  0  0  0  0
 35 33  1  0  0  0  0
 36 35  2  0  0  0  0
 37 36  1  0  0  0  0
 37 30  1  0  0  0  0
 38 37  2  0  0  0  0
M  END
>  <VSCORE>
 -8.7

>  <MODEL>
1

>  <TORSDO>
F 7

$$$$
33
 OpenBabel08042114533D

 40 43  0  0  1  0  0  0  0  0999 V2000
  -23.7830   21.6880  -33.1880 C   0  0  0  0  0  3  0  0  0  0  0  0
  -24.3740   20.7490  -32.3410 C   0  0  0  0  0  3  0  0  0  0  0  0
  -23.5510   19.8610  -31.6690 C   0  0  0  0  0  0  0  0  0  0  0  0
  -23.9500   18.8000  -30.6890 C   0  0  0  0  0  2  0  0  0  0  0  0
  -22.6780   17.9300  -30.6670 C   0  0  1  0  0  3  0  0  0  0  0  0
  -21.4880   18.8760  -30.9610 C   0  0  1  0  0  3  0  0  0  0  0  0
  -22.1580   19.9090  -31.8190 C   0  0  0  0  0  0  0  0  0  0  0  0
  -21.5650   20.8420  -32.6530 C   0  0  0  0  0  3  0  0  0  0  0  0
  -22.3880   21.7340  -33.3440 C   0  0  0  0  0  3  0  0  0  0  0  0
  -22.5520   17.1740  -29.4520 N   0  0  0  0  0  0  0  0  0  0  0  0
  -22.5170   17.6810  -28.5680 H   0  0  0  0  0  0  0  0  0  0  0  0
  -22.4760   15.7870  -29.4190 C   0  0  0  0  0  0  0  0  0  0  0  0
  -22.5040   15.0510  -30.4000 O   0  0  0  0  0  0  0  0  0  0  0  0
  -22.3490   15.2640  -28.0290 C   0  0  0  0  0  3  0  0  0  0  0  0
  -21.8030   16.0300  -27.0730 C   0  0  0  0  0  3  0  0  0  0  0  0
  -21.6360   15.6210  -25.6680 C   0  0  0  0  0  0  0  0  0  0  0  0
  -22.4190   16.2070  -24.6730 C   0  0  0  0  0  3  0  0  0  0  0  0
  -22.2630   15.8190  -23.3430 C   0  0  0  0  0  3  0  0  0  0  0  0
  -21.3210   14.8460  -23.0060 C   0  0  0  0  0  0  0  0  0  0  0  0
  -20.5380   14.2610  -24.0000 C   0  0  0  0  0  3  0  0  0  0  0  0
  -20.6950   14.6470  -25.3300 C   0  0  0  0  0  3  0  0  0  0  0  0
  -21.1580   14.4420  -21.6190 C   0  0  0  0  0  0  0  0  0  0  0  0
  -21.8650   14.9240  -20.7160 O   0  0  0  0  0  0  0  0  0  0  0  0
  -20.1940   13.4800  -21.3330 N   0  0  0  0  0  0  0  0  0  0  0  0
  -20.0320   13.1570  -20.3840 H   0  0  0  0  0  0  0  0  0  0  0  0
  -19.6400   13.0930  -22.0890 H   0  0  0  0  0  0  0  0  0  0  0  0
  -20.9110   19.4690  -29.7830 N   0  0  0  0  0  0  0  0  0  0  0  0
  -21.2430   20.3890  -29.5010 H   0  0  0  0  0  0  0  0  0  0  0  0
  -19.9620   18.8130  -29.0120 C   0  0  0  0  0  0  0  0  0  0  0  0
  -19.5190   17.6920  -29.2370 O   0  0  0  0  0  0  0  0  0  0  0  0
  -19.5260   19.6310  -27.8470 C   0  0  0  0  0  3  0  0  0  0  0  0
  -19.1140   20.8920  -28.0290 C   0  0  0  0  0  3  0  0  0  0  0  0
  -18.6780   21.7370  -26.9520 C   0  0  0  0  0  0  0  0  0  0  0  0
  -17.2650   22.1930  -26.8910 C   0  0  0  0  0  0  0  0  0  0  0  0
  -16.4310   21.8790  -27.7350 O   0  0  0  0  0  0  0  0  0  0  0  0
  -16.9930   22.9970  -25.8000 N   0  0  0  0  0  0  0  0  0  0  0  0
  -16.0490   23.3530  -25.6810 H   0  0  0  0  0  0  0  0  0  0  0  0
  -17.9560   23.3270  -24.8740 C   0  0  0  0  0  3  0  0  0  0  0  0
  -19.1870   22.9370  -24.9160 N   0  0  0  0  0  0  0  0  0  0  0  0
  -19.5160   22.1340  -25.9820 C   0  0  0  0  0  3  0  0  0  0  0  0
  1  2  1  0  0  0  0
  2  3  2  0  0  0  0
  3  4  1  0  0  0  0
  4  5  1  0  0  0  0
  5 10  1  1  0  0  0
  6  5  1  0  0  0  0
  6 27  1  1  0  0  0
  7  3  1  0  0  0  0
  7  6  1  0  0  0  0
  8  7  2  0  0  0  0
  9  1  2  0  0  0  0
  9  8  1  0  0  0  0
 10 12  1  0  0  0  0
 10 11  1  0  0  0  0
 12 14  1  0  0  0  0
 13 12  2  0  0  0  0
 14 15  2  0  0  0  0
 15 16  1  0  0  0  0
 16 21  2  0  0  0  0
 16 17  1  0  0  0  0
 17 18  2  0  0  0  0
 18 19  1  0  0  0  0
 19 22  1  0  0  0  0
 20 19  2  0  0  0  0
 21 20  1  0  0  0  0
 22 24  1  0  0  0  0
 22 23  2  0  0  0  0
 24 25  1  0  0  0  0
 26 24  1  0  0  0  0
 27 28  1  0  0  0  0
 27 29  1  0  0  0  0
 29 31  1  0  0  0  0
 30 29  2  0  0  0  0
 32 31  2  0  0  0  0
 32 33  1  0  0  0  0
 33 34  1  0  0  0  0
 33 40  2  0  0  0  0
 34 36  1  0  0  0  0
 35 34  2  0  0  0  0
 36 37  1  0  0  0  0
 36 38  1  0  0  0  0
 39 38  2  0  0  0  0
 40 39  1  0  0  0  0
M  END
>  <VSCORE>
 -8.8

>  <MODEL>
1

>  <TORSDO>
F 7

$$$$
34
 OpenBabel08042114533D

 37 40  0  0  1  0  0  0  0  0999 V2000
  -20.8410   16.6610  -26.1030 C   0  0  1  0  0  3  0  0  0  0  0  0
  -22.5320   14.3340  -20.2540 C   0  0  0  0  0  3  0  0  0  0  0  0
  -21.6470   13.8390  -21.2110 C   0  0  0  0  0  3  0  0  0  0  0  0
  -21.4400   14.5240  -22.4190 C   0  0  0  0  0  0  0  0  0  0  0  0
  -22.1420   15.7300  -22.6590 C   0  0  0  0  0  0  0  0  0  0  0  0
  -21.9340   16.4160  -23.8670 C   0  0  0  0  0  3  0  0  0  0  0  0
  -21.0490   15.9200  -24.8250 C   0  0  0  0  0  0  0  0  0  0  0  0
  -20.3590   14.7340  -24.5880 C   0  0  0  0  0  3  0  0  0  0  0  0
  -23.0290   16.2140  -21.6850 C   0  0  0  0  0  3  0  0  0  0  0  0
  -20.5530   14.0400  -23.3940 C   0  0  0  0  0  3  0  0  0  0  0  0
  -23.2220   15.5190  -20.4900 C   0  0  0  0  0  3  0  0  0  0  0  0
  -21.1690   15.8280  -27.2790 N   0  0  0  0  0  0  0  0  0  0  0  0
  -21.9400   15.1920  -27.2220 H   0  0  0  0  0  0  0  0  0  0  0  0
  -20.4510   15.8980  -28.4440 C   0  0  0  0  0  0  0  0  0  0  0  0
  -19.4860   16.6260  -28.6620 O   0  0  0  0  0  0  0  0  0  0  0  0
  -21.0110   14.9360  -29.4600 C   0  0  0  0  0  2  0  0  0  0  0  0
  -21.9440   15.6450  -30.3490 N   0  0  0  0  0  0  0  0  0  0  0  0
  -21.6260   16.9280  -30.7290 N   0  0  0  0  0  0  0  0  0  0  0  0
  -20.7610   17.3210  -30.3720 H   0  0  0  0  0  0  0  0  0  0  0  0
  -22.4360   17.6640  -31.5570 C   0  0  0  0  0  0  0  0  0  0  0  0
  -22.1820   18.8110  -31.9160 O   0  0  0  0  0  0  0  0  0  0  0  0
  -23.6710   17.0030  -32.0190 C   0  0  0  0  0  3  0  0  0  0  0  0
  -23.9670   15.7590  -31.6420 C   0  0  0  0  0  3  0  0  0  0  0  0
  -23.0740   14.9910  -30.7490 C   0  0  0  0  0  0  0  0  0  0  0  0
  -23.3920   13.8450  -30.4310 O   0  0  0  0  0  0  0  0  0  0  0  0
  -21.6260   17.9920  -26.1980 C   0  0  0  0  0  2  0  0  0  0  0  0
  -20.8840   18.9960  -26.9140 N   0  0  0  0  0  0  0  0  0  0  0  0
  -21.3220   19.4500  -27.7130 H   0  0  0  0  0  0  0  0  0  0  0  0
  -19.5930   19.3720  -26.5610 C   0  0  0  0  0  0  0  0  0  0  0  0
  -18.9570   18.9000  -25.6220 O   0  0  0  0  0  0  0  0  0  0  0  0
  -19.0490   20.4440  -27.4860 C   0  0  0  0  0  2  0  0  0  0  0  0
  -18.1260   21.4130  -26.7960 C   0  0  0  0  0  0  0  0  0  0  0  0
  -16.7640   21.4110  -27.0520 C   0  0  0  0  0  3  0  0  0  0  0  0
  -15.8820   22.2530  -26.4690 N   0  0  0  0  0  0  0  0  0  0  0  0
  -16.3930   23.1390  -25.5860 C   0  0  0  0  0  3  0  0  0  0  0  0
  -17.7370   23.2220  -25.2600 C   0  0  0  0  0  3  0  0  0  0  0  0
  -18.6140   22.3400  -25.8810 C   0  0  0  0  0  3  0  0  0  0  0  0
  1 26  1  1  0  0  0
  1  7  1  0  0  0  0
  3  2  2  0  0  0  0
  4  3  1  0  0  0  0
  5  4  1  0  0  0  0
  5  9  1  0  0  0  0
  6  5  2  0  0  0  0
  7  8  2  0  0  0  0
  7  6  1  0  0  0  0
  8 10  1  0  0  0  0
  9 11  2  0  0  0  0
 10  4  2  0  0  0  0
 11  2  1  0  0  0  0
 12 13  1  0  0  0  0
 12  1  1  0  0  0  0
 14 12  1  0  0  0  0
 15 14  2  0  0  0  0
 16 14  1  0  0  0  0
 17 16  1  0  0  0  0
 18 19  1  0  0  0  0
 18 17  1  0  0  0  0
 20 18  1  0  0  0  0
 21 20  2  0  0  0  0
 22 23  2  0  0  0  0
 22 20  1  0  0  0  0
 23 24  1  0  0  0  0
 24 25  2  0  0  0  0
 24 17  1  0  0  0  0
 27 29  1  0  0  0  0
 27 26  1  0  0  0  0
 28 27  1  0  0  0  0
 29 30  2  0  0  0  0
 31 32  1  0  0  0  0
 31 29  1  0  0  0  0
 32 37  1  0  0  0  0
 33 32  2  0  0  0  0
 33 34  1  0  0  0  0
 34 35  2  0  0  0  0
 35 36  1  0  0  0  0
 37 36  2  0  0  0  0
M  END
>  <VSCORE>
 -9.0

>  <MODEL>
1

>  <TORSDO>
F 8

$$$$
35
 OpenBabel08042114533D

 35 38  0  0  1  0  0  0  0  0999 V2000
  -21.8180   14.3190  -20.6770 C   0  0  0  0  0  3  0  0  0  0  0  0
  -21.0820   13.8640  -21.7720 C   0  0  0  0  0  3  0  0  0  0  0  0
  -21.1890   14.5550  -22.9670 C   0  0  0  0  0  0  0  0  0  0  0  0
  -20.4750   14.2790  -24.2550 C   0  0  0  0  0  2  0  0  0  0  0  0
  -21.3350   15.0870  -25.2450 C   0  0  1  0  0  3  0  0  0  0  0  0
  -21.9180   16.2830  -24.4530 C   0  0  1  0  0  3  0  0  0  0  0  0
  -22.0010   15.6920  -23.0760 C   0  0  0  0  0  0  0  0  0  0  0  0
  -22.7290   16.1520  -21.9920 C   0  0  0  0  0  3  0  0  0  0  0  0
  -22.6370   15.4550  -20.7860 C   0  0  0  0  0  3  0  0  0  0  0  0
  -20.6090   15.4540  -26.4290 N   0  0  0  0  0  0  0  0  0  0  0  0
  -20.2220   16.3960  -26.4850 H   0  0  0  0  0  0  0  0  0  0  0  0
  -20.4060   14.5930  -27.5040 C   0  0  0  0  0  0  0  0  0  0  0  0
  -20.8160   13.4380  -27.5670 O   0  0  0  0  0  0  0  0  0  0  0  0
  -19.6140   15.2530  -28.6040 C   0  0  0  0  0  2  0  0  0  0  0  0
  -20.5020   16.1100  -29.4050 N   0  0  0  0  0  0  0  0  0  0  0  0
  -21.5210   15.5090  -30.1080 N   0  0  0  0  0  0  0  0  0  0  0  0
  -21.6040   14.5000  -30.0350 H   0  0  0  0  0  0  0  0  0  0  0  0
  -22.3970   16.2290  -30.8780 C   0  0  0  0  0  0  0  0  0  0  0  0
  -23.3180   15.7240  -31.5160 O   0  0  0  0  0  0  0  0  0  0  0  0
  -22.1880   17.6890  -30.9140 C   0  0  0  0  0  3  0  0  0  0  0  0
  -21.1960   18.2570  -30.2300 C   0  0  0  0  0  3  0  0  0  0  0  0
  -20.2660   17.4540  -29.4070 C   0  0  0  0  0  0  0  0  0  0  0  0
  -19.3670   18.0280  -28.7930 O   0  0  0  0  0  0  0  0  0  0  0  0
  -21.0810   17.4550  -24.4690 N   0  0  0  0  0  0  0  0  0  0  0  0
  -20.3990   17.5730  -23.7220 H   0  0  0  0  0  0  0  0  0  0  0  0
  -21.1590   18.4320  -25.4530 C   0  0  0  0  0  0  0  0  0  0  0  0
  -21.9290   18.4220  -26.4080 O   0  0  0  0  0  0  0  0  0  0  0  0
  -20.1790   19.5320  -25.2240 C   0  0  0  0  0  3  0  0  0  0  0  0
  -19.3870   19.9410  -26.2270 C   0  0  0  0  0  3  0  0  0  0  0  0
  -18.3920   21.0220  -26.1180 C   0  0  0  0  0  0  0  0  0  0  0  0
  -17.1890   20.9570  -26.8010 C   0  0  0  0  0  3  0  0  0  0  0  0
  -16.2330   21.9120  -26.7450 N   0  0  0  0  0  0  0  0  0  0  0  0
  -16.5010   22.9830  -25.9650 C   0  0  0  0  0  3  0  0  0  0  0  0
  -17.6720   23.1440  -25.2430 C   0  0  0  0  0  3  0  0  0  0  0  0
  -18.6310   22.1400  -25.3260 C   0  0  0  0  0  3  0  0  0  0  0  0
  2  1  2  0  0  0  0
  3  2  1  0  0  0  0
  4  3  1  0  0  0  0
  5 10  1  6  0  0  0
  5  6  1  0  0  0  0
  5  4  1  0  0  0  0
  6 24  1  1  0  0  0
  6  7  1  0  0  0  0
  7  3  2  0  0  0  0
  7  8  1  0  0  0  0
  8  9  2  0  0  0  0
  9  1  1  0  0  0  0
 11 10  1  0  0  0  0
 12 10  1  0  0  0  0
 13 12  2  0  0  0  0
 14 12  1  0  0  0  0
 15 14  1  0  0  0  0
 16 17  1  0  0  0  0
 16 15  1  0  0  0  0
 18 16  1  0  0  0  0
 19 18  2  0  0  0  0
 20 18  1  0  0  0  0
 20 21  2  0  0  0  0
 21 22  1  0  0  0  0
 22 15  1  0  0  0  0
 22 23  2  0  0  0  0
 24 25  1  0  0  0  0
 26 28  1  0  0  0  0
 26 24  1  0  0  0  0
 27 26  2  0  0  0  0
 29 30  1  0  0  0  0
 29 28  2  0  0  0  0
 30 35  1  0  0  0  0
 31 32  1  0  0  0  0
 31 30  2  0  0  0  0
 32 33  2  0  0  0  0
 33 34  1  0  0  0  0
 35 34  2  0  0  0  0
M  END
>  <VSCORE>
 -9.1

>  <MODEL>
1

>  <TORSDO>
F 6

$$$$
36
 OpenBabel08042114533D

 39 42  0  0  1  0  0  0  0  0999 V2000
  -20.3780   18.9710  -29.6080 C   0  0  1  0  0  3  0  0  0  0  0  0
  -21.9970   12.6580  -29.5560 C   0  0  0  0  0  3  0  0  0  0  0  0
  -20.8470   13.3070  -29.1090 C   0  0  0  0  0  3  0  0  0  0  0  0
  -20.7190   14.7010  -29.2270 C   0  0  0  0  0  0  0  0  0  0  0  0
  -21.7750   15.4450  -29.8050 C   0  0  0  0  0  0  0  0  0  0  0  0
  -21.6480   16.8400  -29.9220 C   0  0  0  0  0  3  0  0  0  0  0  0
  -20.4970   17.4890  -29.4760 C   0  0  0  0  0  0  0  0  0  0  0  0
  -19.4590   16.7570  -28.9070 C   0  0  0  0  0  3  0  0  0  0  0  0
  -22.9260   14.7750  -30.2480 C   0  0  0  0  0  3  0  0  0  0  0  0
  -19.5680   15.3710  -28.7830 C   0  0  0  0  0  3  0  0  0  0  0  0
  -23.0350   13.3890  -30.1240 C   0  0  0  0  0  3  0  0  0  0  0  0
  -20.7820   19.4350  -30.9520 N   0  0  0  0  0  0  0  0  0  0  0  0
  -21.3370   18.8310  -31.5260 H   0  0  0  0  0  0  0  0  0  0  0  0
  -20.4210   20.6640  -31.4370 C   0  0  0  0  0  0  0  0  0  0  0  0
  -19.7470   21.5080  -30.8520 O   0  0  0  0  0  0  0  0  0  0  0  0
  -20.9710   20.8590  -32.8260 C   0  0  0  0  0  2  0  0  0  0  0  0
  -22.0010   21.9070  -32.8070 N   0  0  0  0  0  0  0  0  0  0  0  0
  -21.6070   23.2060  -33.0310 N   0  0  0  0  0  0  0  0  0  0  0  0
  -20.6190   23.3720  -33.1980 H   0  0  0  0  0  0  0  0  0  0  0  0
  -22.5000   24.2480  -33.0330 C   0  0  0  0  0  0  0  0  0  0  0  0
  -22.1810   25.4180  -33.2310 O   0  0  0  0  0  0  0  0  0  0  0  0
  -23.9100   23.9000  -32.7810 C   0  0  0  0  0  3  0  0  0  0  0  0
  -24.2780   22.6380  -32.5630 C   0  0  0  0  0  3  0  0  0  0  0  0
  -23.2930   21.5350  -32.5670 C   0  0  0  0  0  0  0  0  0  0  0  0
  -23.6840   20.3860  -32.3630 O   0  0  0  0  0  0  0  0  0  0  0  0
  -21.1730   19.7660  -28.5450 C   0  0  0  0  0  2  0  0  0  0  0  0
  -21.1220   19.1270  -27.2560 N   0  0  0  0  0  0  0  0  0  0  0  0
  -21.8400   18.4430  -27.0260 H   0  0  0  0  0  0  0  0  0  0  0  0
  -20.1430   19.3980  -26.3100 C   0  0  0  0  0  0  0  0  0  0  0  0
  -19.2220   20.1950  -26.4470 O   0  0  0  0  0  0  0  0  0  0  0  0
  -20.3320   18.5960  -25.0670 C   0  0  0  0  0  3  0  0  0  0  0  0
  -20.6090   17.2870  -25.1510 C   0  0  0  0  0  3  0  0  0  0  0  0
  -20.8060   16.3970  -23.9930 C   0  0  0  0  0  0  0  0  0  0  0  0
  -20.7390   15.0120  -24.1000 C   0  0  0  0  0  0  0  0  0  0  0  0
  -20.4640   14.3420  -25.4060 C   0  0  0  0  0  1  0  0  0  0  0  0
  -20.9340   14.2240  -22.9710 C   0  0  0  0  0  3  0  0  0  0  0  0
  -21.1890   14.8630  -21.7690 C   0  0  0  0  0  3  0  0  0  0  0  0
  -21.2610   16.2060  -21.6270 N   0  0  0  0  0  0  0  0  0  0  0  0
  -21.0670   16.9400  -22.7450 C   0  0  0  0  0  3  0  0  0  0  0  0
  1  7  1  0  0  0  0
  1 26  1  1  0  0  0
  2  3  1  0  0  0  0
  4  3  2  0  0  0  0
  4 10  1  0  0  0  0
  5  4  1  0  0  0  0
  6  5  1  0  0  0  0
  6  7  2  0  0  0  0
  7  8  1  0  0  0  0
  8 10  2  0  0  0  0
  9 11  1  0  0  0  0
  9  5  2  0  0  0  0
 11  2  2  0  0  0  0
 12  1  1  0  0  0  0
 13 12  1  0  0  0  0
 14 12  1  0  0  0  0
 14 15  2  0  0  0  0
 16 17  1  0  0  0  0
 16 14  1  0  0  0  0
 17 24  1  0  0  0  0
 18 17  1  0  0  0  0
 19 18  1  0  0  0  0
 20 18  1  0  0  0  0
 20 22  1  0  0  0  0
 21 20  2  0  0  0  0
 22 23  2  0  0  0  0
 24 23  1  0  0  0  0
 24 25  2  0  0  0  0
 26 27  1  0  0  0  0
 27 28  1  0  0  0  0
 27 29  1  0  0  0  0
 29 31  1  0  0  0  0
 30 29  2  0  0  0  0
 32 31  2  0  0  0  0
 32 33  1  0  0  0  0
 33 39  1  0  0  0  0
 34 33  2  0  0  0  0
 34 36  1  0  0  0  0
 35 34  1  0  0  0  0
 36 37  2  0  0  0  0
 37 38  1  0  0  0  0
 39 38  2  0  0  0  0
M  END
>  <VSCORE>
 -8.7

>  <MODEL>
1

>  <TORSDO>
F 8

$$$$
37
 OpenBabel08042114533D

 35 38  0  0  1  0  0  0  0  0999 V2000
  -22.3950   12.9610  -28.7420 C   0  0  0  0  0  3  0  0  0  0  0  0
  -22.8730   13.8520  -27.7790 C   0  0  0  0  0  3  0  0  0  0  0  0
  -22.1590   15.0160  -27.5490 C   0  0  0  0  0  0  0  0  0  0  0  0
  -22.4920   16.1270  -26.6020 C   0  0  0  0  0  2  0  0  0  0  0  0
  -21.1360   16.8520  -26.5140 C   0  0  1  0  0  3  0  0  0  0  0  0
  -20.4270   16.6350  -27.8740 C   0  0  1  0  0  3  0  0  0  0  0  0
  -20.9940   15.3050  -28.2740 C   0  0  0  0  0  0  0  0  0  0  0  0
  -20.5180   14.4280  -29.2350 C   0  0  0  0  0  3  0  0  0  0  0  0
  -21.2260   13.2460  -29.4640 C   0  0  0  0  0  3  0  0  0  0  0  0
  -21.2740   18.2290  -26.1270 N   0  0  0  0  0  0  0  0  0  0  0  0
  -22.1300   18.7200  -26.3890 H   0  0  0  0  0  0  0  0  0  0  0  0
  -20.3050   18.9300  -25.4170 C   0  0  0  0  0  0  0  0  0  0  0  0
  -19.2330   18.4620  -25.0410 O   0  0  0  0  0  0  0  0  0  0  0  0
  -20.7250   20.3540  -25.1570 C   0  0  0  0  0  2  0  0  0  0  0  0
  -19.5690   21.2480  -25.3270 N   0  0  0  0  0  0  0  0  0  0  0  0
  -18.6100   20.8970  -26.2480 N   0  0  0  0  0  0  0  0  0  0  0  0
  -18.7510   20.0330  -26.7630 H   0  0  0  0  0  0  0  0  0  0  0  0
  -17.5010   21.6700  -26.4750 C   0  0  0  0  0  0  0  0  0  0  0  0
  -16.6260   21.3870  -27.2900 O   0  0  0  0  0  0  0  0  0  0  0  0
  -17.3900   22.9050  -25.6740 C   0  0  0  0  0  3  0  0  0  0  0  0
  -18.3260   23.2310  -24.7840 C   0  0  0  0  0  3  0  0  0  0  0  0
  -19.5130   22.3770  -24.5620 C   0  0  0  0  0  0  0  0  0  0  0  0
  -20.3490   22.7250  -23.7300 O   0  0  0  0  0  0  0  0  0  0  0  0
  -20.7250   17.6470  -28.8530 N   0  0  0  0  0  0  0  0  0  0  0  0
  -21.5510   17.5290  -29.4370 H   0  0  0  0  0  0  0  0  0  0  0  0
  -19.9400   18.7720  -29.0360 C   0  0  0  0  0  0  0  0  0  0  0  0
  -18.9210   19.0590  -28.4170 O   0  0  0  0  0  0  0  0  0  0  0  0
  -20.4490   19.6580  -30.0990 C   0  0  0  0  0  0  0  0  0  0  0  0
  -20.6410   19.1390  -31.3540 N   0  0  0  0  0  0  0  0  0  0  0  0
  -20.4330   18.1650  -31.5320 H   0  0  0  0  0  0  0  0  0  0  0  0
  -21.1120   19.9180  -32.3740 C   0  0  0  0  0  3  0  0  0  0  0  0
  -21.4150   21.2150  -32.2310 C   0  0  0  0  0  3  0  0  0  0  0  0
  -21.2190   21.8220  -30.8790 C   0  0  0  0  0  0  0  0  0  0  0  0
  -21.4730   23.0040  -30.6710 O   0  0  0  0  0  0  0  0  0  0  0  0
  -20.7030   20.9380  -29.7870 C   0  0  0  0  0  3  0  0  0  0  0  0
  1  2  1  0  0  0  0
  2  3  2  0  0  0  0
  3  4  1  0  0  0  0
  4  5  1  0  0  0  0
  5 10  1  6  0  0  0
  6 24  1  6  0  0  0
  6  5  1  0  0  0  0
  7  6  1  0  0  0  0
  7  3  1  0  0  0  0
  8  7  2  0  0  0  0
  9  8  1  0  0  0  0
  9  1  2  0  0  0  0
 10 12  1  0  0  0  0
 11 10  1  0  0  0  0
 12 14  1  0  0  0  0
 12 13  2  0  0  0  0
 15 14  1  0  0  0  0
 15 22  1  0  0  0  0
 16 15  1  0  0  0  0
 17 16  1  0  0  0  0
 18 16  1  0  0  0  0
 18 20  1  0  0  0  0
 19 18  2  0  0  0  0
 20 21  2  0  0  0  0
 21 22  1  0  0  0  0
 22 23  2  0  0  0  0
 25 24  1  0  0  0  0
 26 24  1  0  0  0  0
 26 27  2  0  0  0  0
 28 35  2  0  0  0  0
 28 26  1  0  0  0  0
 29 28  1  0  0  0  0
 30 29  1  0  0  0  0
 31 32  2  0  0  0  0
 31 29  1  0  0  0  0
 32 33  1  0  0  0  0
 33 34  2  0  0  0  0
 33 35  1  0  0  0  0
M  END
>  <VSCORE>
 -8.5

>  <MODEL>
1

>  <TORSDO>
F 5

$$$$
38
 OpenBabel08042114533D

 36 39  0  0  1  0  0  0  0  0999 V2000
  -20.8940   18.9230  -28.8720 C   0  0  1  0  0  3  0  0  0  0  0  0
  -21.8380   12.5360  -29.7670 C   0  0  0  0  0  3  0  0  0  0  0  0
  -20.6970   13.2460  -29.3930 C   0  0  0  0  0  3  0  0  0  0  0  0
  -20.7330   14.6440  -29.2620 C   0  0  0  0  0  0  0  0  0  0  0  0
  -21.9440   15.3310  -29.5130 C   0  0  0  0  0  0  0  0  0  0  0  0
  -21.9800   16.7290  -29.3820 C   0  0  0  0  0  3  0  0  0  0  0  0
  -20.8390   17.4380  -29.0070 C   0  0  0  0  0  0  0  0  0  0  0  0
  -19.6470   16.7620  -28.7600 C   0  0  0  0  0  3  0  0  0  0  0  0
  -23.0830   14.6010  -29.8880 C   0  0  0  0  0  3  0  0  0  0  0  0
  -19.5930   15.3740  -28.8860 C   0  0  0  0  0  3  0  0  0  0  0  0
  -23.0290   13.2130  -30.0150 C   0  0  0  0  0  3  0  0  0  0  0  0
  -21.8300   19.5260  -29.8440 N   0  0  0  0  0  0  0  0  0  0  0  0
  -22.7840   19.6710  -29.5800 H   0  0  0  0  0  0  0  0  0  0  0  0
  -21.4200   19.8930  -31.0990 C   0  0  0  0  0  0  0  0  0  0  0  0
  -20.2850   19.7740  -31.5530 O   0  0  0  0  0  0  0  0  0  0  0  0
  -22.5780   20.4770  -31.8820 C   0  0  0  0  0  2  0  0  0  0  0  0
  -23.7610   19.5510  -31.9800 C   0  0  0  0  0  0  0  0  0  0  0  0
  -25.0570   20.0380  -31.9250 C   0  0  0  0  0  3  0  0  0  0  0  0
  -26.1620   19.2630  -32.0070 N   0  0  0  0  0  0  0  0  0  0  0  0
  -25.9530   17.9340  -32.1490 C   0  0  0  0  0  3  0  0  0  0  0  0
  -24.6990   17.3490  -32.2130 C   0  0  0  0  0  0  0  0  0  0  0  0
  -24.5610   16.0250  -32.3550 F   0  0  0  0  0  0  0  0  0  0  0  0
  -23.5870   18.1800  -32.1270 C   0  0  0  0  0  3  0  0  0  0  0  0
  -21.2620   19.4160  -27.4520 C   0  0  0  0  0  2  0  0  0  0  0  0
  -20.3580   20.4380  -26.9940 N   0  0  0  0  0  0  0  0  0  0  0  0
  -20.5090   21.3960  -27.3030 H   0  0  0  0  0  0  0  0  0  0  0  0
  -19.2910   20.1760  -26.1510 C   0  0  0  0  0  0  0  0  0  0  0  0
  -18.9740   19.0850  -25.6910 O   0  0  0  0  0  0  0  0  0  0  0  0
  -18.5100   21.3840  -25.8260 C   0  0  0  0  0  0  0  0  0  0  0  0
  -17.2530   21.4550  -26.2860 C   0  0  0  0  0  3  0  0  0  0  0  0
  -16.4300   22.6650  -25.9760 C   0  0  0  0  0  0  0  0  0  0  0  0
  -15.2760   22.7520  -26.3880 O   0  0  0  0  0  0  0  0  0  0  0  0
  -17.0600   23.6390  -25.2160 N   0  0  0  0  0  0  0  0  0  0  0  0
  -16.5480   24.4830  -24.9770 H   0  0  0  0  0  0  0  0  0  0  0  0
  -18.3510   23.5290  -24.7630 C   0  0  0  0  0  3  0  0  0  0  0  0
  -19.0870   22.4470  -25.0400 C   0  0  0  0  0  3  0  0  0  0  0  0
  1 24  1  1  0  0  0
  2  3  1  0  0  0  0
  3  4  2  0  0  0  0
  4 10  1  0  0  0  0
  5  6  1  0  0  0  0
  5  4  1  0  0  0  0
  6  7  2  0  0  0  0
  7  1  1  0  0  0  0
  7  8  1  0  0  0  0
  9  5  2  0  0  0  0
 10  8  2  0  0  0  0
 11  9  1  0  0  0  0
 11  2  2  0  0  0  0
 12 13  1  0  0  0  0
 12  1  1  0  0  0  0
 14 12  1  0  0  0  0
 15 14  2  0  0  0  0
 16 14  1  0  0  0  0
 17 18  1  0  0  0  0
 17 16  1  0  0  0  0
 19 18  2  0  0  0  0
 20 19  1  0  0  0  0
 21 20  2  0  0  0  0
 21 23  1  0  0  0  0
 22 21  1  0  0  0  0
 23 17  2  0  0  0  0
 24 25  1  0  0  0  0
 25 27  1  0  0  0  0
 26 25  1  0  0  0  0
 27 29  1  0  0  0  0
 27 28  2  0  0  0  0
 29 36  1  0  0  0  0
 30 31  1  0  0  0  0
 30 29  2  0  0  0  0
 31 33  1  0  0  0  0
 32 31  2  0  0  0  0
 33 34  1  0  0  0  0
 33 35  1  0  0  0  0
 36 35  2  0  0  0  0
M  END
>  <VSCORE>
 -9.6

>  <MODEL>
1

>  <TORSDO>
F 7

$$$$
39
 OpenBabel08042114533D

 38 41  0  0  1  0  0  0  0  0999 V2000
  -22.7670   13.7710  -30.5890 C   0  0  0  0  0  3  0  0  0  0  0  0
  -22.3100   15.0760  -30.4190 C   0  0  0  0  0  3  0  0  0  0  0  0
  -21.9220   15.5390  -29.1530 C   0  0  0  0  0  0  0  0  0  0  0  0
  -21.4800   16.9680  -28.9960 C   0  0  0  0  0  2  0  0  0  0  0  0
  -20.6800   17.1980  -27.7200 C   0  0  0  0  0  2  0  0  0  0  0  0
  -21.3660   16.6050  -26.5650 N   0  0  0  0  0  0  0  0  0  0  0  0
  -21.6190   15.1490  -26.6490 C   0  0  1  0  0  3  0  0  0  0  0  0
  -21.7220   17.2740  -25.3920 C   0  0  0  0  0  0  0  0  0  0  0  0
  -22.2980   16.7510  -24.4360 O   0  0  0  0  0  0  0  0  0  0  0  0
  -22.0110   14.6840  -28.0410 C   0  0  0  0  0  0  0  0  0  0  0  0
  -22.4840   13.3740  -28.2270 C   0  0  0  0  0  3  0  0  0  0  0  0
  -22.8560   12.9200  -29.4920 C   0  0  0  0  0  3  0  0  0  0  0  0
  -21.3900   18.7080  -25.2800 C   0  0  0  0  0  3  0  0  0  0  0  0
  -20.1260   19.0530  -25.0120 C   0  0  0  0  0  3  0  0  0  0  0  0
  -19.6980   20.4180  -24.8810 C   0  0  0  0  0  0  0  0  0  0  0  0
  -18.5990   20.9360  -25.7330 C   0  0  0  0  0  0  0  0  0  0  0  0
  -18.0230   20.2410  -26.5650 O   0  0  0  0  0  0  0  0  0  0  0  0
  -18.2960   22.2640  -25.4980 N   0  0  0  0  0  0  0  0  0  0  0  0
  -17.5510   22.6860  -26.0470 H   0  0  0  0  0  0  0  0  0  0  0  0
  -18.9610   23.0210  -24.5560 C   0  0  0  0  0  0  0  0  0  0  0  0
  -19.9210   22.5710  -23.8080 N   0  0  0  0  0  0  0  0  0  0  0  0
  -18.5050   24.4460  -24.4270 C   0  0  0  0  0  1  0  0  0  0  0  0
  -20.2640   21.2560  -24.0000 C   0  0  0  0  0  3  0  0  0  0  0  0
  -20.3980   14.3840  -26.1220 C   0  0  0  0  0  2  0  0  0  0  0  0
  -20.6110   14.0270  -24.7620 N   0  0  0  0  0  0  0  0  0  0  0  0
  -21.3780   13.3780  -24.5500 H   0  0  0  0  0  0  0  0  0  0  0  0
  -19.8410   14.5050  -23.6950 C   0  0  0  0  0  0  0  0  0  0  0  0
  -18.8980   15.2830  -23.8130 O   0  0  0  0  0  0  0  0  0  0  0  0
  -20.3030   13.9580  -22.3690 C   0  0  0  0  0  2  0  0  0  0  0  0
  -21.0160   15.0050  -21.6230 N   0  0  0  0  0  0  0  0  0  0  0  0
  -20.4870   16.2750  -21.6260 N   0  0  0  0  0  0  0  0  0  0  0  0
  -19.6270   16.4210  -22.1460 H   0  0  0  0  0  0  0  0  0  0  0  0
  -21.0850   17.3150  -20.9600 C   0  0  0  0  0  0  0  0  0  0  0  0
  -20.6400   18.4600  -20.9430 O   0  0  0  0  0  0  0  0  0  0  0  0
  -22.3290   16.9960  -20.2350 C   0  0  0  0  0  3  0  0  0  0  0  0
  -22.8290   15.7620  -20.2390 C   0  0  0  0  0  3  0  0  0  0  0  0
  -22.1630   14.6610  -20.9670 C   0  0  0  0  0  0  0  0  0  0  0  0
  -22.6660   13.5380  -20.9410 O   0  0  0  0  0  0  0  0  0  0  0  0
  1  2  2  0  0  0  0
  1 12  1  0  0  0  0
  2  3  1  0  0  0  0
  3  4  1  0  0  0  0
  3 10  2  0  0  0  0
  4  5  1  0  0  0  0
  5  6  1  0  0  0  0
  6  8  1  0  0  0  0
  7  6  1  0  0  0  0
  7 24  1  6  0  0  0
  8 13  1  0  0  0  0
  8  9  2  0  0  0  0
 10  7  1  0  0  0  0
 11 10  1  0  0  0  0
 12 11  2  0  0  0  0
 13 14  2  0  0  0  0
 14 15  1  0  0  0  0
 15 23  2  0  0  0  0
 16 18  1  0  0  0  0
 16 15  1  0  0  0  0
 17 16  2  0  0  0  0
 18 20  1  0  0  0  0
 19 18  1  0  0  0  0
 20 22  1  0  0  0  0
 20 21  2  0  0  0  0
 23 21  1  0  0  0  0
 24 25  1  0  0  0  0
 25 26  1  0  0  0  0
 25 27  1  0  0  0  0
 27 29  1  0  0  0  0
 28 27  2  0  0  0  0
 29 30  1  0  0  0  0
 30 37  1  0  0  0  0
 31 30  1  0  0  0  0
 31 33  1  0  0  0  0
 32 31  1  0  0  0  0
 33 34  2  0  0  0  0
 33 35  1  0  0  0  0
 36 35  2  0  0  0  0
 37 38  2  0  0  0  0
 37 36  1  0  0  0  0
M  END
>  <VSCORE>
 -9.3

>  <MODEL>
1

>  <TORSDO>
F 6

$$$$
3
 OpenBabel08042114533D

 40 43  0  0  1  0  0  0  0  0999 V2000
  -20.2960   19.1530  -29.8020 C   0  0  1  0  0  3  0  0  0  0  0  0
  -21.9950   12.8870  -29.2160 C   0  0  0  0  0  3  0  0  0  0  0  0
  -20.8290   13.5540  -28.8400 C   0  0  0  0  0  3  0  0  0  0  0  0
  -20.6860   14.9330  -29.0710 C   0  0  0  0  0  0  0  0  0  0  0  0
  -21.7400   15.6420  -29.6930 C   0  0  0  0  0  0  0  0  0  0  0  0
  -21.5960   17.0210  -29.9250 C   0  0  0  0  0  3  0  0  0  0  0  0
  -20.4310   17.6880  -29.5490 C   0  0  0  0  0  0  0  0  0  0  0  0
  -19.3950   16.9900  -28.9370 C   0  0  0  0  0  3  0  0  0  0  0  0
  -22.9060   14.9550  -30.0650 C   0  0  0  0  0  3  0  0  0  0  0  0
  -19.5200   15.6210  -28.6990 C   0  0  0  0  0  3  0  0  0  0  0  0
  -23.0310   13.5850  -29.8270 C   0  0  0  0  0  3  0  0  0  0  0  0
  -21.5040   19.7100  -30.4460 N   0  0  0  0  0  0  0  0  0  0  0  0
  -22.3020   19.9200  -29.8810 H   0  0  0  0  0  0  0  0  0  0  0  0
  -21.5640   19.9470  -31.7940 C   0  0  0  0  0  0  0  0  0  0  0  0
  -20.6720   19.7410  -32.6120 O   0  0  0  0  0  0  0  0  0  0  0  0
  -22.9130   20.5100  -32.1640 C   0  0  0  0  0  2  0  0  0  0  0  0
  -23.9490   19.4880  -31.9530 N   0  0  0  0  0  0  0  0  0  0  0  0
  -23.8290   18.1460  -32.4420 C   0  0  0  0  0  2  0  0  0  0  0  0
  -25.1380   17.5700  -31.9470 C   0  0  0  0  0  0  0  0  0  0  0  0
  -25.4970   16.4150  -32.1280 O   0  0  0  0  0  0  0  0  0  0  0  0
  -25.8250   18.5520  -31.2790 N   0  0  0  0  0  0  0  0  0  0  0  0
  -26.7350   18.4210  -30.8500 H   0  0  0  0  0  0  0  0  0  0  0  0
  -25.1240   19.7400  -31.2640 C   0  0  0  0  0  0  0  0  0  0  0  0
  -25.4870   20.7860  -30.7430 O   0  0  0  0  0  0  0  0  0  0  0  0
  -19.9760   19.9860  -28.5370 C   0  0  0  0  0  2  0  0  0  0  0  0
  -20.2780   19.2600  -27.3320 N   0  0  0  0  0  0  0  0  0  0  0  0
  -21.1490   18.7320  -27.2980 H   0  0  0  0  0  0  0  0  0  0  0  0
  -19.4110   19.2260  -26.2490 C   0  0  0  0  0  0  0  0  0  0  0  0
  -18.3240   19.7920  -26.1950 O   0  0  0  0  0  0  0  0  0  0  0  0
  -19.9470   18.4060  -25.1280 C   0  0  0  0  0  3  0  0  0  0  0  0
  -20.1350   17.0890  -25.2890 C   0  0  0  0  0  3  0  0  0  0  0  0
  -20.6490   16.2400  -24.2520 C   0  0  0  0  0  0  0  0  0  0  0  0
  -20.6300   14.7650  -24.4240 C   0  0  0  0  0  0  0  0  0  0  0  0
  -20.1870   14.2220  -25.4310 O   0  0  0  0  0  0  0  0  0  0  0  0
  -21.1560   14.0760  -23.3460 N   0  0  0  0  0  0  0  0  0  0  0  0
  -21.1750   13.0610  -23.3960 H   0  0  0  0  0  0  0  0  0  0  0  0
  -21.6480   14.7150  -22.2260 C   0  0  0  0  0  0  0  0  0  0  0  0
  -21.6660   16.0020  -22.0730 N   0  0  0  0  0  0  0  0  0  0  0  0
  -22.1830   13.8160  -21.1500 C   0  0  0  0  0  1  0  0  0  0  0  0
  -21.1550   16.7380  -23.1140 C   0  0  0  0  0  3  0  0  0  0  0  0
  1  7  1  0  0  0  0
  1 25  1  1  0  0  0
  2  3  1  0  0  0  0
  4  3  2  0  0  0  0
  4 10  1  0  0  0  0
  5  4  1  0  0  0  0
  6  5  1  0  0  0  0
  6  7  2  0  0  0  0
  7  8  1  0  0  0  0
  8 10  2  0  0  0  0
  9 11  1  0  0  0  0
  9  5  2  0  0  0  0
 11  2  2  0  0  0  0
 12 13  1  0  0  0  0
 12  1  1  0  0  0  0
 14 12  1  0  0  0  0
 15 14  2  0  0  0  0
 16 17  1  0  0  0  0
 16 14  1  0  0  0  0
 17 23  1  0  0  0  0
 18 17  1  0  0  0  0
 18 19  1  0  0  0  0
 19 21  1  0  0  0  0
 20 19  2  0  0  0  0
 21 23  1  0  0  0  0
 21 22  1  0  0  0  0
 23 24  2  0  0  0  0
 25 26  1  0  0  0  0
 26 27  1  0  0  0  0
 26 28  1  0  0  0  0
 28 29  2  0  0  0  0
 28 30  1  0  0  0  0
 31 30  2  0  0  0  0
 31 32  1  0  0  0  0
 32 40  2  0  0  0  0
 33 32  1  0  0  0  0
 33 35  1  0  0  0  0
 34 33  2  0  0  0  0
 35 37  1  0  0  0  0
 36 35  1  0  0  0  0
 37 38  2  0  0  0  0
 37 39  1  0  0  0  0
 40 38  1  0  0  0  0
M  END
>  <VSCORE>
 -8.6

>  <MODEL>
1

>  <TORSDO>
F 8

$$$$
40
 OpenBabel08042114533D

 38 41  0  0  1  0  0  0  0  0999 V2000
  -20.4550   19.1370  -29.7250 C   0  0  1  0  0  3  0  0  0  0  0  0
  -21.8170   12.7670  -29.4990 C   0  0  0  0  0  3  0  0  0  0  0  0
  -20.7090   13.4790  -29.0400 C   0  0  0  0  0  3  0  0  0  0  0  0
  -20.6340   14.8720  -29.2030 C   0  0  0  0  0  0  0  0  0  0  0  0
  -21.7000   15.5520  -29.8400 C   0  0  0  0  0  0  0  0  0  0  0  0
  -21.6260   16.9450  -30.0030 C   0  0  0  0  0  3  0  0  0  0  0  0
  -20.5170   17.6580  -29.5440 C   0  0  0  0  0  0  0  0  0  0  0  0
  -19.4700   16.9890  -28.9170 C   0  0  0  0  0  3  0  0  0  0  0  0
  -22.8070   14.8190  -30.2960 C   0  0  0  0  0  3  0  0  0  0  0  0
  -19.5270   15.6050  -28.7470 C   0  0  0  0  0  3  0  0  0  0  0  0
  -22.8640   13.4350  -30.1250 C   0  0  0  0  0  3  0  0  0  0  0  0
  -21.7700   19.7000  -30.0960 N   0  0  0  0  0  0  0  0  0  0  0  0
  -22.4850   19.7590  -29.3980 H   0  0  0  0  0  0  0  0  0  0  0  0
  -22.0430   20.1410  -31.3630 C   0  0  0  0  0  0  0  0  0  0  0  0
  -21.2710   20.1330  -32.3190 O   0  0  0  0  0  0  0  0  0  0  0  0
  -23.4570   20.6560  -31.4440 C   0  0  0  0  0  2  0  0  0  0  0  0
  -23.4990   21.8510  -32.2980 N   0  0  0  0  0  0  0  0  0  0  0  0
  -22.6230   22.8760  -32.0220 N   0  0  0  0  0  0  0  0  0  0  0  0
  -21.9910   22.7500  -31.2370 H   0  0  0  0  0  0  0  0  0  0  0  0
  -22.5920   24.0270  -32.7660 C   0  0  0  0  0  0  0  0  0  0  0  0
  -21.8220   24.9600  -32.5470 O   0  0  0  0  0  0  0  0  0  0  0  0
  -23.5510   24.1110  -33.8830 C   0  0  0  0  0  3  0  0  0  0  0  0
  -24.3960   23.1120  -34.1390 C   0  0  0  0  0  3  0  0  0  0  0  0
  -24.4070   21.8820  -33.3180 C   0  0  0  0  0  0  0  0  0  0  0  0
  -25.2060   20.9870  -33.5960 O   0  0  0  0  0  0  0  0  0  0  0  0
  -19.9130   19.9030  -28.4940 C   0  0  0  0  0  2  0  0  0  0  0  0
  -20.4150   19.3510  -27.2630 N   0  0  0  0  0  0  0  0  0  0  0  0
  -21.3850   19.0420  -27.2260 H   0  0  0  0  0  0  0  0  0  0  0  0
  -19.6320   19.2200  -26.1220 C   0  0  0  0  0  0  0  0  0  0  0  0
  -18.4530   19.5540  -26.0390 O   0  0  0  0  0  0  0  0  0  0  0  0
  -20.4130   18.6140  -24.9720 C   0  0  0  0  0  2  0  0  0  0  0  0
  -20.7390   17.1580  -25.1750 C   0  0  0  0  0  0  0  0  0  0  0  0
  -19.8860   16.1640  -24.7230 C   0  0  0  0  0  3  0  0  0  0  0  0
  -20.1200   14.8400  -24.8720 N   0  0  0  0  0  0  0  0  0  0  0  0
  -21.2650   14.5000  -25.5060 C   0  0  0  0  0  3  0  0  0  0  0  0
  -22.1830   15.4170  -25.9940 C   0  0  0  0  0  0  0  0  0  0  0  0
  -23.4240   14.9680  -26.6800 C   0  0  0  0  0  1  0  0  0  0  0  0
  -21.9070   16.7690  -25.8220 C   0  0  0  0  0  3  0  0  0  0  0  0
  1  7  1  0  0  0  0
  1 26  1  1  0  0  0
  2  3  1  0  0  0  0
  4  3  2  0  0  0  0
  4 10  1  0  0  0  0
  5  4  1  0  0  0  0
  6  5  1  0  0  0  0
  6  7  2  0  0  0  0
  7  8  1  0  0  0  0
  8 10  2  0  0  0  0
  9 11  1  0  0  0  0
  9  5  2  0  0  0  0
 11  2  2  0  0  0  0
 12  1  1  0  0  0  0
 12 13  1  0  0  0  0
 14 12  1  0  0  0  0
 15 14  2  0  0  0  0
 16 14  1  0  0  0  0
 17 18  1  0  0  0  0
 17 16  1  0  0  0  0
 18 19  1  0  0  0  0
 20 21  2  0  0  0  0
 20 18  1  0  0  0  0
 22 20  1  0  0  0  0
 23 22  2  0  0  0  0
 23 24  1  0  0  0  0
 24 17  1  0  0  0  0
 25 24  2  0  0  0  0
 26 27  1  0  0  0  0
 27 28  1  0  0  0  0
 27 29  1  0  0  0  0
 29 30  2  0  0  0  0
 29 31  1  0  0  0  0
 32 31  1  0  0  0  0
 32 33  1  0  0  0  0
 34 33  2  0  0  0  0
 35 34  1  0  0  0  0
 36 38  1  0  0  0  0
 36 35  2  0  0  0  0
 37 36  1  0  0  0  0
 38 32  2  0  0  0  0
M  END
>  <VSCORE>
 -8.3

>  <MODEL>
1

>  <TORSDO>
F 8

$$$$
41
 OpenBabel08042114533D

 36 39  0  0  1  0  0  0  0  0999 V2000
  -19.8460   19.5180  -26.1160 C   0  0  1  0  0  3  0  0  0  0  0  0
  -17.3590   23.0000  -25.6190 C   0  0  0  0  0  3  0  0  0  0  0  0
  -16.9590   21.9740  -26.4740 C   0  0  0  0  0  3  0  0  0  0  0  0
  -17.7640   20.8460  -26.6340 C   0  0  0  0  0  3  0  0  0  0  0  0
  -18.9710   20.7460  -25.9400 C   0  0  0  0  0  0  0  0  0  0  0  0
  -19.3700   21.7720  -25.0850 C   0  0  0  0  0  3  0  0  0  0  0  0
  -18.5640   22.9000  -24.9250 C   0  0  0  0  0  3  0  0  0  0  0  0
  -20.4090   19.0910  -24.8290 N   0  0  0  0  0  0  0  0  0  0  0  0
  -20.6180   19.7910  -24.1380 H   0  0  0  0  0  0  0  0  0  0  0  0
  -20.6600   17.7720  -24.5330 C   0  0  0  0  0  0  0  0  0  0  0  0
  -20.4560   16.8140  -25.2740 O   0  0  0  0  0  0  0  0  0  0  0  0
  -21.2300   17.6390  -23.1440 C   0  0  0  0  0  2  0  0  0  0  0  0
  -21.0530   16.2590  -22.6670 N   0  0  0  0  0  0  0  0  0  0  0  0
  -19.8040   15.6920  -22.7800 N   0  0  0  0  0  0  0  0  0  0  0  0
  -19.0690   16.2590  -23.1900 H   0  0  0  0  0  0  0  0  0  0  0  0
  -19.5460   14.4130  -22.3600 C   0  0  0  0  0  0  0  0  0  0  0  0
  -18.4440   13.8760  -22.4460 O   0  0  0  0  0  0  0  0  0  0  0  0
  -20.6830   13.6740  -21.7790 C   0  0  0  0  0  3  0  0  0  0  0  0
  -21.8870   14.2350  -21.6780 C   0  0  0  0  0  3  0  0  0  0  0  0
  -22.1360   15.6180  -22.1380 C   0  0  0  0  0  0  0  0  0  0  0  0
  -23.2660   16.0900  -22.0210 O   0  0  0  0  0  0  0  0  0  0  0  0
  -20.9730   19.7180  -27.1410 C   0  0  0  0  0  2  0  0  0  0  0  0
  -21.3850   18.4730  -27.7480 N   0  0  0  0  0  0  0  0  0  0  0  0
  -22.1700   17.9910  -27.3250 H   0  0  0  0  0  0  0  0  0  0  0  0
  -20.8170   17.9540  -28.9200 C   0  0  0  0  0  0  0  0  0  0  0  0
  -19.9020   18.5400  -29.5290 O   0  0  0  0  0  0  0  0  0  0  0  0
  -21.3560   16.7050  -29.4190 C   0  0  0  0  0  0  0  0  0  0  0  0
  -20.7110   15.4760  -29.2190 C   0  0  0  0  0  0  0  0  0  0  0  0
  -21.3010   14.3200  -29.7330 C   0  0  0  0  0  0  0  0  0  0  0  0
  -20.4820   13.2640  -29.4060 N   0  0  0  0  0  0  0  0  0  0  0  0
  -20.6570   12.2980  -29.6490 H   0  0  0  0  0  0  0  0  0  0  0  0
  -19.3950   13.7120  -28.7040 C   0  0  0  0  0  3  0  0  0  0  0  0
  -22.5010   14.3520  -30.4310 C   0  0  0  0  0  3  0  0  0  0  0  0
  -23.1220   15.5390  -30.6220 N   0  0  0  0  0  0  0  0  0  0  0  0
  -19.5080   15.0760  -28.5730 C   0  0  0  0  0  3  0  0  0  0  0  0
  -22.5510   16.6610  -30.1250 C   0  0  0  0  0  3  0  0  0  0  0  0
  1 22  1  6  0  0  0
  1  5  1  0  0  0  0
  1  8  1  0  0  0  0
  2  7  1  0  0  0  0
  3  2  2  0  0  0  0
  4  3  1  0  0  0  0
  4  5  2  0  0  0  0
  5  6  1  0  0  0  0
  6  7  2  0  0  0  0
  8 10  1  0  0  0  0
  8  9  1  0  0  0  0
 10 12  1  0  0  0  0
 11 10  2  0  0  0  0
 12 13  1  0  0  0  0
 13 20  1  0  0  0  0
 14 13  1  0  0  0  0
 14 16  1  0  0  0  0
 15 14  1  0  0  0  0
 16 18  1  0  0  0  0
 17 16  2  0  0  0  0
 18 19  2  0  0  0  0
 20 21  2  0  0  0  0
 20 19  1  0  0  0  0
 23 24  1  0  0  0  0
 23 22  1  0  0  0  0
 25 23  1  0  0  0  0
 26 25  2  0  0  0  0
 27 28  1  0  0  0  0
 27 25  1  0  0  0  0
 28 35  1  0  0  0  0
 29 30  1  0  0  0  0
 29 28  2  0  0  0  0
 30 32  1  0  0  0  0
 31 30  1  0  0  0  0
 32 35  2  0  0  0  0
 33 29  1  0  0  0  0
 34 33  2  0  0  0  0
 34 36  1  0  0  0  0
 36 27  2  0  0  0  0
M  END
>  <VSCORE>
 -8.7

>  <MODEL>
1

>  <TORSDO>
F 7

$$$$
42
 OpenBabel08042114533D

 40 43  0  0  1  0  0  0  0  0999 V2000
  -21.2570   15.9980  -25.2080 C   0  0  1  0  0  3  0  0  0  0  0  0
  -23.4540   15.3730  -19.1050 C   0  0  0  0  0  3  0  0  0  0  0  0
  -23.4900   16.4580  -19.9800 C   0  0  0  0  0  3  0  0  0  0  0  0
  -22.9430   16.3570  -21.2690 C   0  0  0  0  0  0  0  0  0  0  0  0
  -22.3520   15.1380  -21.6770 C   0  0  0  0  0  0  0  0  0  0  0  0
  -21.8060   15.0360  -22.9670 C   0  0  0  0  0  3  0  0  0  0  0  0
  -21.8420   16.1220  -23.8420 C   0  0  0  0  0  0  0  0  0  0  0  0
  -22.4230   17.3220  -23.4410 C   0  0  0  0  0  3  0  0  0  0  0  0
  -22.3260   14.0550  -20.7820 C   0  0  0  0  0  3  0  0  0  0  0  0
  -22.9710   17.4400  -22.1640 C   0  0  0  0  0  3  0  0  0  0  0  0
  -22.8720   14.1740  -19.5050 C   0  0  0  0  0  3  0  0  0  0  0  0
  -20.2660   17.0600  -25.4790 N   0  0  0  0  0  0  0  0  0  0  0  0
  -19.3840   16.9650  -25.0160 H   0  0  0  0  0  0  0  0  0  0  0  0
  -20.5460   18.0780  -26.3470 C   0  0  0  0  0  0  0  0  0  0  0  0
  -21.5870   18.2390  -26.9760 O   0  0  0  0  0  0  0  0  0  0  0  0
  -19.3920   19.0130  -26.4520 C   0  0  0  0  0  3  0  0  0  0  0  0
  -19.4370   20.2060  -25.8450 C   0  0  0  0  0  3  0  0  0  0  0  0
  -18.3610   21.1560  -25.9050 C   0  0  0  0  0  0  0  0  0  0  0  0
  -18.3970   22.3720  -25.0510 C   0  0  0  0  0  0  0  0  0  0  0  0
  -19.3190   22.6110  -24.2780 O   0  0  0  0  0  0  0  0  0  0  0  0
  -17.2970   23.1930  -25.2150 N   0  0  0  0  0  0  0  0  0  0  0  0
  -17.2410   24.0480  -24.6690 H   0  0  0  0  0  0  0  0  0  0  0  0
  -16.2820   22.8900  -26.0940 C   0  0  0  0  0  3  0  0  0  0  0  0
  -16.2400   21.8380  -26.8410 N   0  0  0  0  0  0  0  0  0  0  0  0
  -17.3080   20.9820  -26.7190 C   0  0  0  0  0  3  0  0  0  0  0  0
  -20.6060   14.6230  -25.4960 C   0  0  0  0  0  2  0  0  0  0  0  0
  -20.5180   14.3620  -26.9090 N   0  0  0  0  0  0  0  0  0  0  0  0
  -19.6380   14.5560  -27.3830 H   0  0  0  0  0  0  0  0  0  0  0  0
  -21.5740   13.8590  -27.6570 C   0  0  0  0  0  0  0  0  0  0  0  0
  -22.6860   13.5830  -27.2100 O   0  0  0  0  0  0  0  0  0  0  0  0
  -21.2300   13.6770  -29.1230 C   0  0  0  0  0  2  0  0  0  0  0  0
  -21.8020   14.8050  -29.9050 C   0  0  0  0  0  0  0  0  0  0  0  0
  -21.0780   16.1080  -29.9020 C   0  0  0  0  0  0  0  0  0  0  0  0
  -20.0350   16.2690  -29.2780 O   0  0  0  0  0  0  0  0  0  0  0  0
  -21.6910   17.0900  -30.6580 N   0  0  0  0  0  0  0  0  0  0  0  0
  -21.2590   18.0080  -30.7080 H   0  0  0  0  0  0  0  0  0  0  0  0
  -22.8640   16.8710  -31.3480 C   0  0  0  0  0  0  0  0  0  0  0  0
  -23.5010   15.7420  -31.3560 N   0  0  0  0  0  0  0  0  0  0  0  0
  -23.3940   18.0450  -32.1200 C   0  0  0  0  0  1  0  0  0  0  0  0
  -22.9360   14.7310  -30.6200 C   0  0  0  0  0  3  0  0  0  0  0  0
  1 26  1  1  0  0  0
  1  7  1  0  0  0  0
  3  2  2  0  0  0  0
  4  3  1  0  0  0  0
  5  4  1  0  0  0  0
  5  9  1  0  0  0  0
  6  5  2  0  0  0  0
  7  8  2  0  0  0  0
  7  6  1  0  0  0  0
  8 10  1  0  0  0  0
  9 11  2  0  0  0  0
 10  4  2  0  0  0  0
 11  2  1  0  0  0  0
 12  1  1  0  0  0  0
 12 13  1  0  0  0  0
 14 12  1  0  0  0  0
 15 14  2  0  0  0  0
 16 14  1  0  0  0  0
 16 17  2  0  0  0  0
 18 17  1  0  0  0  0
 18 19  1  0  0  0  0
 19 20  2  0  0  0  0
 21 19  1  0  0  0  0
 21 22  1  0  0  0  0
 23 21  1  0  0  0  0
 24 25  1  0  0  0  0
 24 23  2  0  0  0  0
 25 18  2  0  0  0  0
 27 26  1  0  0  0  0
 28 27  1  0  0  0  0
 29 30  2  0  0  0  0
 29 27  1  0  0  0  0
 31 29  1  0  0  0  0
 32 33  1  0  0  0  0
 32 31  1  0  0  0  0
 33 34  2  0  0  0  0
 35 33  1  0  0  0  0
 36 35  1  0  0  0  0
 37 35  1  0  0  0  0
 38 37  2  0  0  0  0
 38 40  1  0  0  0  0
 39 37  1  0  0  0  0
 40 32  2  0  0  0  0
M  END
>  <VSCORE>
 -9.3

>  <MODEL>
1

>  <TORSDO>
F 8

$$$$
43
 OpenBabel08042114533D

 36 39  0  0  1  0  0  0  0  0999 V2000
  -21.8090   15.1070  -20.6940 C   0  0  0  0  0  3  0  0  0  0  0  0
  -21.7410   16.3150  -21.3900 C   0  0  0  0  0  3  0  0  0  0  0  0
  -21.2860   16.2940  -22.6970 C   0  0  0  0  0  0  0  0  0  0  0  0
  -21.1610   17.4480  -23.6450 C   0  0  0  0  0  2  0  0  0  0  0  0
  -20.2250   16.8490  -24.7130 C   0  0  1  0  0  3  0  0  0  0  0  0
  -20.4990   15.3250  -24.7390 C   0  0  1  0  0  3  0  0  0  0  0  0
  -20.9170   15.0920  -23.3170 C   0  0  0  0  0  0  0  0  0  0  0  0
  -20.9880   13.8890  -22.6340 C   0  0  0  0  0  3  0  0  0  0  0  0
  -21.4340   13.9030  -21.3110 C   0  0  0  0  0  3  0  0  0  0  0  0
  -20.3570   17.5000  -25.9860 N   0  0  0  0  0  0  0  0  0  0  0  0
  -21.0660   17.1520  -26.6310 H   0  0  0  0  0  0  0  0  0  0  0  0
  -19.5880   18.6000  -26.3420 C   0  0  0  0  0  0  0  0  0  0  0  0
  -18.7350   19.1250  -25.6350 O   0  0  0  0  0  0  0  0  0  0  0  0
  -19.9150   19.0950  -27.7080 C   0  0  0  0  0  3  0  0  0  0  0  0
  -20.7430   20.1360  -27.8630 C   0  0  0  0  0  3  0  0  0  0  0  0
  -21.1030   20.6650  -29.1500 C   0  0  0  0  0  0  0  0  0  0  0  0
  -22.5080   20.5800  -29.6210 C   0  0  0  0  0  0  0  0  0  0  0  0
  -23.4010   20.0690  -28.9510 O   0  0  0  0  0  0  0  0  0  0  0  0
  -22.7040   21.1280  -30.8750 N   0  0  0  0  0  0  0  0  0  0  0  0
  -23.6440   21.1050  -31.2610 H   0  0  0  0  0  0  0  0  0  0  0  0
  -21.6800   21.6960  -31.6050 C   0  0  0  0  0  0  0  0  0  0  0  0
  -20.4510   21.7700  -31.1970 N   0  0  0  0  0  0  0  0  0  0  0  0
  -22.0670   22.2430  -32.9480 C   0  0  0  0  0  1  0  0  0  0  0  0
  -20.1980   21.2410  -29.9550 C   0  0  0  0  0  3  0  0  0  0  0  0
  -21.5350   14.9360  -25.6590 N   0  0  0  0  0  0  0  0  0  0  0  0
  -22.4840   15.2640  -25.4840 H   0  0  0  0  0  0  0  0  0  0  0  0
  -21.3100   14.1370  -26.7750 C   0  0  0  0  0  0  0  0  0  0  0  0
  -20.2190   13.6760  -27.1040 O   0  0  0  0  0  0  0  0  0  0  0  0
  -22.5810   13.8950  -27.5490 C   0  0  0  0  0  2  0  0  0  0  0  0
  -22.5810   14.7200  -28.7670 N   0  0  0  0  0  0  0  0  0  0  0  0
  -22.8780   14.1090  -29.9850 C   0  0  0  0  0  0  0  0  0  0  0  0
  -23.1480   12.9210  -30.1500 O   0  0  0  0  0  0  0  0  0  0  0  0
  -22.8550   15.0140  -31.1750 C   0  0  0  0  0  3  0  0  0  0  0  0
  -22.5670   16.3110  -31.0260 C   0  0  0  0  0  3  0  0  0  0  0  0
  -22.2720   16.8590  -29.7300 C   0  0  0  0  0  3  0  0  0  0  0  0
  -22.2860   16.0620  -28.6550 C   0  0  0  0  0  3  0  0  0  0  0  0
  2  1  2  0  0  0  0
  3  2  1  0  0  0  0
  4  3  1  0  0  0  0
  5 10  1  6  0  0  0
  5  4  1  0  0  0  0
  6 25  1  6  0  0  0
  6  5  1  0  0  0  0
  6  7  1  0  0  0  0
  7  3  2  0  0  0  0
  7  8  1  0  0  0  0
  8  9  2  0  0  0  0
  9  1  1  0  0  0  0
 11 10  1  0  0  0  0
 12 10  1  0  0  0  0
 12 13  2  0  0  0  0
 14 12  1  0  0  0  0
 15 14  2  0  0  0  0
 16 15  1  0  0  0  0
 17 16  1  0  0  0  0
 17 18  2  0  0  0  0
 19 17  1  0  0  0  0
 20 19  1  0  0  0  0
 21 22  2  0  0  0  0
 21 19  1  0  0  0  0
 22 24  1  0  0  0  0
 23 21  1  0  0  0  0
 24 16  2  0  0  0  0
 25 26  1  0  0  0  0
 27 25  1  0  0  0  0
 28 27  2  0  0  0  0
 29 27  1  0  0  0  0
 30 36  1  0  0  0  0
 30 29  1  0  0  0  0
 31 30  1  0  0  0  0
 32 31  2  0  0  0  0
 33 34  2  0  0  0  0
 33 31  1  0  0  0  0
 34 35  1  0  0  0  0
 35 36  2  0  0  0  0
M  END
>  <VSCORE>
 -8.5

>  <MODEL>
1

>  <TORSDO>
F 6

$$$$
44
 OpenBabel08042114533D

 36 38  0  0  1  0  0  0  0  0999 V2000
  -19.9340   19.7000  -25.8830 C   0  0  1  0  0  3  0  0  0  0  0  0
  -17.4410   23.1840  -25.4220 C   0  0  0  0  0  3  0  0  0  0  0  0
  -17.0720   22.1750  -26.3090 C   0  0  0  0  0  3  0  0  0  0  0  0
  -17.8780   21.0460  -26.4590 C   0  0  0  0  0  3  0  0  0  0  0  0
  -19.0560   20.9280  -25.7200 C   0  0  0  0  0  0  0  0  0  0  0  0
  -19.4270   21.9390  -24.8330 C   0  0  0  0  0  3  0  0  0  0  0  0
  -18.6200   23.0670  -24.6840 C   0  0  0  0  0  3  0  0  0  0  0  0
  -20.4410   19.2460  -24.5830 N   0  0  0  0  0  0  0  0  0  0  0  0
  -20.5330   19.9160  -23.8380 H   0  0  0  0  0  0  0  0  0  0  0  0
  -20.7960   17.9390  -24.3440 C   0  0  0  0  0  0  0  0  0  0  0  0
  -20.7370   17.0160  -25.1510 O   0  0  0  0  0  0  0  0  0  0  0  0
  -21.2750   17.7710  -22.9240 C   0  0  0  0  0  2  0  0  0  0  0  0
  -21.1040   16.3700  -22.5100 N   0  0  0  0  0  0  0  0  0  0  0  0
  -19.8590   15.8020  -22.6460 N   0  0  0  0  0  0  0  0  0  0  0  0
  -19.1200   16.3830  -23.0300 H   0  0  0  0  0  0  0  0  0  0  0  0
  -19.6080   14.5040  -22.2820 C   0  0  0  0  0  0  0  0  0  0  0  0
  -18.5080   13.9650  -22.3900 O   0  0  0  0  0  0  0  0  0  0  0  0
  -20.7490   13.7450  -21.7370 C   0  0  0  0  0  3  0  0  0  0  0  0
  -21.9500   14.3070  -21.6110 C   0  0  0  0  0  3  0  0  0  0  0  0
  -22.1910   15.7110  -22.0110 C   0  0  0  0  0  0  0  0  0  0  0  0
  -23.3190   16.1840  -21.8740 O   0  0  0  0  0  0  0  0  0  0  0  0
  -21.1040   19.9170  -26.8560 C   0  0  0  0  0  2  0  0  0  0  0  0
  -21.4280   18.7170  -27.5910 N   0  0  0  0  0  0  0  0  0  0  0  0
  -22.1220   18.0920  -27.1920 H   0  0  0  0  0  0  0  0  0  0  0  0
  -20.8580   18.4290  -28.8200 C   0  0  0  0  0  0  0  0  0  0  0  0
  -20.0410   19.1310  -29.4070 O   0  0  0  0  0  0  0  0  0  0  0  0
  -21.3580   17.1410  -29.3760 C   0  0  0  0  0  3  0  0  0  0  0  0
  -21.1070   15.9920  -28.7360 C   0  0  0  0  0  3  0  0  0  0  0  0
  -21.5570   14.7150  -29.2160 C   0  0  0  0  0  0  0  0  0  0  0  0
  -20.6060   13.5760  -29.2990 C   0  0  0  0  0  0  0  0  0  0  0  0
  -19.4280   13.6720  -28.9690 O   0  0  0  0  0  0  0  0  0  0  0  0
  -21.1810   12.4130  -29.7790 N   0  0  0  0  0  0  0  0  0  0  0  0
  -20.6010   11.5840  -29.8670 H   0  0  0  0  0  0  0  0  0  0  0  0
  -22.5060   12.3460  -30.1390 C   0  0  0  0  0  3  0  0  0  0  0  0
  -23.3430   13.3280  -30.0710 N   0  0  0  0  0  0  0  0  0  0  0  0
  -22.8270   14.5120  -29.6000 C   0  0  0  0  0  3  0  0  0  0  0  0
  1 22  1  6  0  0  0
  1  5  1  0  0  0  0
  1  8  1  0  0  0  0
  2  7  1  0  0  0  0
  3  2  2  0  0  0  0
  4  3  1  0  0  0  0
  4  5  2  0  0  0  0
  5  6  1  0  0  0  0
  6  7  2  0  0  0  0
  8 10  1  0  0  0  0
  8  9  1  0  0  0  0
 10 12  1  0  0  0  0
 11 10  2  0  0  0  0
 12 13  1  0  0  0  0
 13 20  1  0  0  0  0
 14 13  1  0  0  0  0
 14 16  1  0  0  0  0
 15 14  1  0  0  0  0
 16 18  1  0  0  0  0
 17 16  2  0  0  0  0
 18 19  2  0  0  0  0
 20 21  2  0  0  0  0
 20 19  1  0  0  0  0
 23 24  1  0  0  0  0
 23 22  1  0  0  0  0
 25 23  1  0  0  0  0
 26 25  2  0  0  0  0
 27 25  1  0  0  0  0
 27 28  2  0  0  0  0
 29 28  1  0  0  0  0
 30 29  1  0  0  0  0
 30 31  2  0  0  0  0
 32 30  1  0  0  0  0
 33 32  1  0  0  0  0
 34 35  2  0  0  0  0
 34 32  1  0  0  0  0
 35 36  1  0  0  0  0
 36 29  2  0  0  0  0
M  END
>  <VSCORE>
 -8.4

>  <MODEL>
1

>  <TORSDO>
F 8

$$$$
45
 OpenBabel08042114533D

 38 41  0  0  1  0  0  0  0  0999 V2000
  -19.3800   18.5890  -26.4530 C   0  0  1  0  0  3  0  0  0  0  0  0
  -19.1870   24.5500  -23.8250 C   0  0  0  0  0  3  0  0  0  0  0  0
  -18.3780   23.9530  -24.7910 C   0  0  0  0  0  3  0  0  0  0  0  0
  -18.6140   22.6330  -25.2090 C   0  0  0  0  0  0  0  0  0  0  0  0
  -19.6880   21.9090  -24.6370 C   0  0  0  0  0  0  0  0  0  0  0  0
  -19.9250   20.5890  -25.0550 C   0  0  0  0  0  3  0  0  0  0  0  0
  -19.1140   19.9910  -26.0210 C   0  0  0  0  0  0  0  0  0  0  0  0
  -18.0590   20.7040  -26.5830 C   0  0  0  0  0  3  0  0  0  0  0  0
  -20.4930   22.5250  -23.6660 C   0  0  0  0  0  3  0  0  0  0  0  0
  -17.8090   22.0160  -26.1800 C   0  0  0  0  0  3  0  0  0  0  0  0
  -20.2430   23.8380  -23.2640 C   0  0  0  0  0  3  0  0  0  0  0  0
  -20.6320   18.0630  -25.8690 N   0  0  0  0  0  0  0  0  0  0  0  0
  -21.4080   18.6840  -25.7490 H   0  0  0  0  0  0  0  0  0  0  0  0
  -20.7640   16.7550  -25.4850 C   0  0  0  0  0  0  0  0  0  0  0  0
  -19.9050   15.8810  -25.5700 O   0  0  0  0  0  0  0  0  0  0  0  0
  -22.1410   16.5120  -24.9250 C   0  0  0  0  0  2  0  0  0  0  0  0
  -22.0320   15.8670  -23.6080 N   0  0  0  0  0  0  0  0  0  0  0  0
  -21.3310   14.6860  -23.5220 N   0  0  0  0  0  0  0  0  0  0  0  0
  -20.9240   14.3210  -24.3780 H   0  0  0  0  0  0  0  0  0  0  0  0
  -21.1770   14.0160  -22.3350 C   0  0  0  0  0  0  0  0  0  0  0  0
  -20.5560   12.9610  -22.2230 O   0  0  0  0  0  0  0  0  0  0  0  0
  -21.8070   14.6300  -21.1510 C   0  0  0  0  0  3  0  0  0  0  0  0
  -22.4850   15.7730  -21.2490 C   0  0  0  0  0  3  0  0  0  0  0  0
  -22.6340   16.4730  -22.5430 C   0  0  0  0  0  0  0  0  0  0  0  0
  -23.2690   17.5270  -22.5800 O   0  0  0  0  0  0  0  0  0  0  0  0
  -19.4260   18.3970  -27.9880 C   0  0  0  0  0  2  0  0  0  0  0  0
  -19.9790   17.1170  -28.3470 N   0  0  0  0  0  0  0  0  0  0  0  0
  -19.7280   16.3050  -27.7850 H   0  0  0  0  0  0  0  0  0  0  0  0
  -20.8330   16.9400  -29.4210 C   0  0  0  0  0  0  0  0  0  0  0  0
  -21.2280   17.8080  -30.1900 O   0  0  0  0  0  0  0  0  0  0  0  0
  -21.2600   15.5380  -29.5850 C   0  0  0  0  0  0  0  0  0  0  0  0
  -22.4450   15.2940  -30.1610 C   0  0  0  0  0  3  0  0  0  0  0  0
  -22.8820   14.0020  -30.3340 N   0  0  0  0  0  0  0  0  0  0  0  0
  -23.7860   13.8570  -30.7740 H   0  0  0  0  0  0  0  0  0  0  0  0
  -22.1570   12.8880  -29.9400 C   0  0  0  0  0  0  0  0  0  0  0  0
  -22.5380   11.7300  -30.0900 O   0  0  0  0  0  0  0  0  0  0  0  0
  -20.8380   13.1720  -29.2990 C   0  0  0  0  0  3  0  0  0  0  0  0
  -20.4370   14.4400  -29.1420 C   0  0  0  0  0  3  0  0  0  0  0  0
  1 26  1  6  0  0  0
  1  7  1  0  0  0  0
  1 12  1  0  0  0  0
  2 11  1  0  0  0  0
  3  2  2  0  0  0  0
  4  3  1  0  0  0  0
  4  5  1  0  0  0  0
  5  9  1  0  0  0  0
  6  5  2  0  0  0  0
  7  6  1  0  0  0  0
  8 10  1  0  0  0  0
  8  7  2  0  0  0  0
  9 11  2  0  0  0  0
 10  4  2  0  0  0  0
 12 13  1  0  0  0  0
 12 14  1  0  0  0  0
 14 16  1  0  0  0  0
 15 14  2  0  0  0  0
 16 17  1  0  0  0  0
 17 18  1  0  0  0  0
 17 24  1  0  0  0  0
 18 20  1  0  0  0  0
 19 18  1  0  0  0  0
 20 21  2  0  0  0  0
 20 22  1  0  0  0  0
 23 22  2  0  0  0  0
 24 23  1  0  0  0  0
 25 24  2  0  0  0  0
 27 26  1  0  0  0  0
 27 28  1  0  0  0  0
 29 27  1  0  0  0  0
 30 29  2  0  0  0  0
 31 29  1  0  0  0  0
 31 38  1  0  0  0  0
 32 31  2  0  0  0  0
 33 32  1  0  0  0  0
 33 35  1  0  0  0  0
 34 33  1  0  0  0  0
 35 37  1  0  0  0  0
 36 35  2  0  0  0  0
 37 38  2  0  0  0  0
M  END
>  <VSCORE>
 -9.3

>  <MODEL>
1

>  <TORSDO>
F 7

$$$$
46
 OpenBabel08042114533D

 38 41  0  0  1  0  0  0  0  0999 V2000
  -21.7640   15.1070  -20.7150 C   0  0  0  0  0  3  0  0  0  0  0  0
  -21.6280   16.3360  -21.3630 C   0  0  0  0  0  3  0  0  0  0  0  0
  -21.2130   16.3390  -22.6840 C   0  0  0  0  0  0  0  0  0  0  0  0
  -21.0310   17.5200  -23.5880 C   0  0  0  0  0  2  0  0  0  0  0  0
  -20.1720   16.9020  -24.7070 C   0  0  1  0  0  3  0  0  0  0  0  0
  -20.5570   15.4050  -24.7870 C   0  0  1  0  0  3  0  0  0  0  0  0
  -20.9500   15.1420  -23.3630 C   0  0  0  0  0  0  0  0  0  0  0  0
  -21.0890   13.9190  -22.7280 C   0  0  0  0  0  3  0  0  0  0  0  0
  -21.4960   13.9070  -21.3920 C   0  0  0  0  0  3  0  0  0  0  0  0
  -20.2920   17.6160  -25.9480 N   0  0  0  0  0  0  0  0  0  0  0  0
  -20.9980   17.3040  -26.6130 H   0  0  0  0  0  0  0  0  0  0  0  0
  -19.5140   18.7270  -26.2450 C   0  0  0  0  0  0  0  0  0  0  0  0
  -18.6630   19.2120  -25.5080 O   0  0  0  0  0  0  0  0  0  0  0  0
  -19.8300   19.2900  -27.5870 C   0  0  0  0  0  3  0  0  0  0  0  0
  -20.7080   20.2950  -27.7030 C   0  0  0  0  0  3  0  0  0  0  0  0
  -21.0600   20.8840  -28.9650 C   0  0  0  0  0  0  0  0  0  0  0  0
  -22.4880   21.0730  -29.3230 C   0  0  0  0  0  0  0  0  0  0  0  0
  -23.4070   20.7430  -28.5780 O   0  0  0  0  0  0  0  0  0  0  0  0
  -22.6760   21.6510  -30.5650 N   0  0  0  0  0  0  0  0  0  0  0  0
  -23.6310   21.8100  -30.8760 H   0  0  0  0  0  0  0  0  0  0  0  0
  -21.6230   22.0110  -31.3810 C   0  0  0  0  0  0  0  0  0  0  0  0
  -20.3740   21.8480  -31.0710 N   0  0  0  0  0  0  0  0  0  0  0  0
  -22.0040   22.6260  -32.6970 C   0  0  0  0  0  1  0  0  0  0  0  0
  -20.1300   21.2770  -29.8470 C   0  0  0  0  0  3  0  0  0  0  0  0
  -21.6440   15.1310  -25.6900 N   0  0  0  0  0  0  0  0  0  0  0  0
  -22.5430   15.5740  -25.5100 H   0  0  0  0  0  0  0  0  0  0  0  0
  -21.5320   14.2950  -26.7950 C   0  0  0  0  0  0  0  0  0  0  0  0
  -20.5090   13.7000  -27.1280 O   0  0  0  0  0  0  0  0  0  0  0  0
  -22.8320   14.1970  -27.5510 C   0  0  0  0  0  2  0  0  0  0  0  0
  -22.6650   14.7710  -28.8940 N   0  0  0  0  0  0  0  0  0  0  0  0
  -22.4480   16.1380  -29.0130 C   0  0  0  0  0  0  0  0  0  0  0  0
  -22.3740   16.9590  -28.1060 O   0  0  0  0  0  0  0  0  0  0  0  0
  -22.2860   16.6660  -30.4240 C   0  0  0  0  0  0  0  0  0  0  0  0
  -22.0940   17.8650  -30.5740 O   0  0  0  0  0  0  0  0  0  0  0  0
  -22.3700   15.7360  -31.4390 N   0  0  0  0  0  0  0  0  0  0  0  0
  -22.2660   16.0470  -32.4010 H   0  0  0  0  0  0  0  0  0  0  0  0
  -22.5860   14.4080  -31.2190 C   0  0  0  0  0  3  0  0  0  0  0  0
  -22.7300   13.9350  -29.9810 C   0  0  0  0  0  3  0  0  0  0  0  0
  2  1  1  0  0  0  0
  3  2  2  0  0  0  0
  4  3  1  0  0  0  0
  5 10  1  6  0  0  0
  5  4  1  0  0  0  0
  6 25  1  6  0  0  0
  6  5  1  0  0  0  0
  6  7  1  0  0  0  0
  7  8  2  0  0  0  0
  7  3  1  0  0  0  0
  8  9  1  0  0  0  0
  9  1  2  0  0  0  0
 11 10  1  0  0  0  0
 12 10  1  0  0  0  0
 12 13  2  0  0  0  0
 14 12  1  0  0  0  0
 15 14  2  0  0  0  0
 16 15  1  0  0  0  0
 17 16  1  0  0  0  0
 17 18  2  0  0  0  0
 19 17  1  0  0  0  0
 20 19  1  0  0  0  0
 21 22  2  0  0  0  0
 21 19  1  0  0  0  0
 22 24  1  0  0  0  0
 23 21  1  0  0  0  0
 24 16  2  0  0  0  0
 25 26  1  0  0  0  0
 27 25  1  0  0  0  0
 28 27  2  0  0  0  0
 29 27  1  0  0  0  0
 30 29  1  0  0  0  0
 31 30  1  0  0  0  0
 31 32  2  0  0  0  0
 33 31  1  0  0  0  0
 34 33  2  0  0  0  0
 35 37  1  0  0  0  0
 35 33  1  0  0  0  0
 36 35  1  0  0  0  0
 37 38  2  0  0  0  0
 38 30  1  0  0  0  0
M  END
>  <VSCORE>
 -8.4

>  <MODEL>
1

>  <TORSDO>
F 6

$$$$
47
 OpenBabel08042114533D

 39 42  0  0  1  0  0  0  0  0999 V2000
  -21.8140   19.2490  -25.3240 C   0  0  1  0  0  3  0  0  0  0  0  0
  -20.8510   13.6860  -22.0680 C   0  0  0  0  0  3  0  0  0  0  0  0
  -20.1450   14.2570  -23.1260 C   0  0  0  0  0  3  0  0  0  0  0  0
  -20.5460   15.4850  -23.6760 C   0  0  0  0  0  0  0  0  0  0  0  0
  -21.6800   16.1440  -23.1440 C   0  0  0  0  0  0  0  0  0  0  0  0
  -22.0810   17.3730  -23.6930 C   0  0  0  0  0  3  0  0  0  0  0  0
  -21.3740   17.9430  -24.7520 C   0  0  0  0  0  0  0  0  0  0  0  0
  -20.2590   17.2950  -25.2760 C   0  0  0  0  0  3  0  0  0  0  0  0
  -22.3780   15.5550  -22.0770 C   0  0  0  0  0  3  0  0  0  0  0  0
  -19.8460   16.0750  -24.7420 C   0  0  0  0  0  3  0  0  0  0  0  0
  -21.9660   14.3340  -21.5440 C   0  0  0  0  0  3  0  0  0  0  0  0
  -20.7170   19.9290  -26.0430 N   0  0  0  0  0  0  0  0  0  0  0  0
  -20.4800   19.6280  -26.9690 H   0  0  0  0  0  0  0  0  0  0  0  0
  -20.0190   20.9550  -25.4790 C   0  0  0  0  0  0  0  0  0  0  0  0
  -20.1720   21.4480  -24.3670 O   0  0  0  0  0  0  0  0  0  0  0  0
  -18.9770   21.4650  -26.3900 C   0  0  0  0  0  0  0  0  0  0  0  0
  -19.1860   21.6910  -27.8260 C   0  0  0  0  0  3  0  0  0  0  0  0
  -18.3060   22.1340  -28.6610 N   0  0  0  0  0  0  0  0  0  0  0  0
  -17.0820   22.4130  -28.1480 N   0  0  0  0  0  0  0  0  0  0  0  0
  -16.4120   22.7600  -28.8280 H   0  0  0  0  0  0  0  0  0  0  0  0
  -16.7210   22.2610  -26.8290 C   0  0  0  0  0  0  0  0  0  0  0  0
  -15.6010   22.5250  -26.3950 O   0  0  0  0  0  0  0  0  0  0  0  0
  -17.7650   21.7490  -25.9120 C   0  0  0  0  0  3  0  0  0  0  0  0
  -23.0400   19.1480  -26.2630 C   0  0  0  0  0  2  0  0  0  0  0  0
  -22.6890   18.5750  -27.5360 N   0  0  0  0  0  0  0  0  0  0  0  0
  -22.3480   19.1960  -28.2660 H   0  0  0  0  0  0  0  0  0  0  0  0
  -22.7910   17.2170  -27.8200 C   0  0  0  0  0  0  0  0  0  0  0  0
  -23.1860   16.3600  -27.0330 O   0  0  0  0  0  0  0  0  0  0  0  0
  -22.3570   16.9120  -29.2300 C   0  0  0  0  0  2  0  0  0  0  0  0
  -21.5410   15.6890  -29.2420 N   0  0  0  0  0  0  0  0  0  0  0  0
  -22.0920   14.4860  -29.6880 C   0  0  0  0  0  0  0  0  0  0  0  0
  -23.2480   14.3490  -30.0890 O   0  0  0  0  0  0  0  0  0  0  0  0
  -21.1690   13.2900  -29.6600 C   0  0  0  0  0  0  0  0  0  0  0  0
  -19.9130   13.4620  -29.2180 C   0  0  0  0  0  3  0  0  0  0  0  0
  -19.4280   14.7400  -28.7760 C   0  0  0  0  0  3  0  0  0  0  0  0
  -20.2410   15.8000  -28.8000 C   0  0  0  0  0  3  0  0  0  0  0  0
  -21.6920   12.1080  -30.0930 N   0  0  0  0  0  0  0  0  0  0  0  0
  -21.9830   11.4360  -29.4160 H   0  0  0  0  0  0  0  0  0  0  0  0
  -21.7690   11.9500  -31.0750 H   0  0  0  0  0  0  0  0  0  0  0  0
  1 24  1  6  0  0  0
  1  7  1  0  0  0  0
  2 11  1  0  0  0  0
  3  2  2  0  0  0  0
  4  5  1  0  0  0  0
  4  3  1  0  0  0  0
  5  9  1  0  0  0  0
  6  5  2  0  0  0  0
  7  6  1  0  0  0  0
  8  7  2  0  0  0  0
  8 10  1  0  0  0  0
  9 11  2  0  0  0  0
 10  4  2  0  0  0  0
 12 14  1  0  0  0  0
 12  1  1  0  0  0  0
 13 12  1  0  0  0  0
 14 15  2  0  0  0  0
 16 23  2  0  0  0  0
 16 14  1  0  0  0  0
 17 16  1  0  0  0  0
 18 19  1  0  0  0  0
 18 17  2  0  0  0  0
 19 21  1  0  0  0  0
 20 19  1  0  0  0  0
 21 22  2  0  0  0  0
 21 23  1  0  0  0  0
 25 24  1  0  0  0  0
 26 25  1  0  0  0  0
 27 25  1  0  0  0  0
 27 28  2  0  0  0  0
 29 27  1  0  0  0  0
 30 29  1  0  0  0  0
 30 36  1  0  0  0  0
 31 33  1  0  0  0  0
 31 30  1  0  0  0  0
 32 31  2  0  0  0  0
 33 34  2  0  0  0  0
 34 35  1  0  0  0  0
 36 35  2  0  0  0  0
 37 33  1  0  0  0  0
 37 38  1  0  0  0  0
 39 37  1  0  0  0  0
M  END
>  <VSCORE>
 -9.0

>  <MODEL>
1

>  <TORSDO>
F 8

$$$$
48
 OpenBabel08042114533D

 37 40  0  0  1  0  0  0  0  0999 V2000
  -21.0990   14.1900  -20.7690 C   0  0  0  0  0  3  0  0  0  0  0  0
  -20.2570   13.9300  -21.8520 C   0  0  0  0  0  3  0  0  0  0  0  0
  -20.6090   14.4350  -23.0930 C   0  0  0  0  0  0  0  0  0  0  0  0
  -19.8520   14.3180  -24.3800 C   0  0  0  0  0  2  0  0  0  0  0  0
  -20.9490   14.6860  -25.3980 C   0  0  1  0  0  3  0  0  0  0  0  0
  -21.9100   15.6640  -24.6800 C   0  0  1  0  0  3  0  0  0  0  0  0
  -21.7700   15.2010  -23.2600 C   0  0  0  0  0  0  0  0  0  0  0  0
  -22.6060   15.4680  -22.1880 C   0  0  0  0  0  3  0  0  0  0  0  0
  -22.2660   14.9530  -20.9360 C   0  0  0  0  0  3  0  0  0  0  0  0
  -20.4070   15.1810  -26.6330 N   0  0  0  0  0  0  0  0  0  0  0  0
  -20.1000   16.1530  -26.6690 H   0  0  0  0  0  0  0  0  0  0  0  0
  -20.2780   14.4060  -27.7820 C   0  0  0  0  0  0  0  0  0  0  0  0
  -20.6070   13.2270  -27.8750 O   0  0  0  0  0  0  0  0  0  0  0  0
  -19.6820   15.1940  -28.9210 C   0  0  0  0  0  2  0  0  0  0  0  0
  -20.5980   16.2780  -29.3030 N   0  0  0  0  0  0  0  0  0  0  0  0
  -21.8620   16.0410  -29.9350 C   0  0  0  0  0  2  0  0  0  0  0  0
  -22.3480   17.4670  -30.0880 C   0  0  0  0  0  0  0  0  0  0  0  0
  -23.4180   17.7830  -30.5910 O   0  0  0  0  0  0  0  0  0  0  0  0
  -21.3970   18.3130  -29.5740 N   0  0  0  0  0  0  0  0  0  0  0  0
  -21.4820   19.3230  -29.5560 H   0  0  0  0  0  0  0  0  0  0  0  0
  -20.3120   17.6150  -29.0850 C   0  0  0  0  0  0  0  0  0  0  0  0
  -19.3150   18.1010  -28.5700 O   0  0  0  0  0  0  0  0  0  0  0  0
  -21.5410   17.0490  -24.8180 N   0  0  0  0  0  0  0  0  0  0  0  0
  -20.8800   17.4340  -24.1480 H   0  0  0  0  0  0  0  0  0  0  0  0
  -22.0220   17.8450  -25.8470 C   0  0  0  0  0  0  0  0  0  0  0  0
  -22.7920   17.4760  -26.7280 O   0  0  0  0  0  0  0  0  0  0  0  0
  -21.4910   19.2340  -25.7740 C   0  0  0  0  0  3  0  0  0  0  0  0
  -20.5780   19.5560  -24.8490 C   0  0  0  0  0  3  0  0  0  0  0  0
  -20.0240   20.8750  -24.7210 C   0  0  0  0  0  0  0  0  0  0  0  0
  -18.7890   21.2350  -25.4610 C   0  0  0  0  0  0  0  0  0  0  0  0
  -18.2030   20.4460  -26.1950 O   0  0  0  0  0  0  0  0  0  0  0  0
  -18.3730   22.5360  -25.2420 N   0  0  0  0  0  0  0  0  0  0  0  0
  -17.5330   22.8530  -25.7180 H   0  0  0  0  0  0  0  0  0  0  0  0
  -19.0540   23.4020  -24.4100 C   0  0  0  0  0  0  0  0  0  0  0  0
  -20.1320   23.0900  -23.7620 N   0  0  0  0  0  0  0  0  0  0  0  0
  -18.4650   24.7770  -24.2830 C   0  0  0  0  0  1  0  0  0  0  0  0
  -20.5910   21.8080  -23.9430 C   0  0  0  0  0  3  0  0  0  0  0  0
  2  1  2  0  0  0  0
  3  2  1  0  0  0  0
  4  3  1  0  0  0  0
  5 10  1  6  0  0  0
  5  6  1  0  0  0  0
  5  4  1  0  0  0  0
  6 23  1  1  0  0  0
  6  7  1  0  0  0  0
  7  3  2  0  0  0  0
  7  8  1  0  0  0  0
  8  9  2  0  0  0  0
  9  1  1  0  0  0  0
 11 10  1  0  0  0  0
 12 10  1  0  0  0  0
 13 12  2  0  0  0  0
 14 12  1  0  0  0  0
 15 21  1  0  0  0  0
 15 14  1  0  0  0  0
 16 15  1  0  0  0  0
 17 16  1  0  0  0  0
 17 19  1  0  0  0  0
 18 17  2  0  0  0  0
 19 20  1  0  0  0  0
 19 21  1  0  0  0  0
 21 22  2  0  0  0  0
 23 24  1  0  0  0  0
 25 27  1  0  0  0  0
 25 23  1  0  0  0  0
 26 25  2  0  0  0  0
 27 28  2  0  0  0  0
 28 29  1  0  0  0  0
 29 37  2  0  0  0  0
 30 32  1  0  0  0  0
 30 29  1  0  0  0  0
 31 30  2  0  0  0  0
 32 34  1  0  0  0  0
 33 32  1  0  0  0  0
 34 36  1  0  0  0  0
 34 35  2  0  0  0  0
 37 35  1  0  0  0  0
M  END
>  <VSCORE>
 -8.2

>  <MODEL>
1

>  <TORSDO>
F 6

$$$$
49
 OpenBabel08042114533D

 36 39  0  0  1  0  0  0  0  0999 V2000
  -19.8210   20.8660  -28.6710 C   0  0  0  0  0  3  0  0  0  0  0  0
  -19.2920   20.9170  -27.3800 C   0  0  0  0  0  3  0  0  0  0  0  0
  -19.8980   20.1630  -26.3910 C   0  0  0  0  0  0  0  0  0  0  0  0
  -19.4910   20.0310  -24.9550 C   0  0  0  0  0  2  0  0  0  0  0  0
  -20.7730   19.4390  -24.3410 C   0  0  1  0  0  3  0  0  0  0  0  0
  -21.4560   18.6060  -25.4540 C   0  0  1  0  0  3  0  0  0  0  0  0
  -21.0060   19.3530  -26.6750 C   0  0  0  0  0  0  0  0  0  0  0  0
  -21.5320   19.2920  -27.9550 C   0  0  0  0  0  3  0  0  0  0  0  0
  -20.9340   20.0590  -28.9560 C   0  0  0  0  0  3  0  0  0  0  0  0
  -20.5160   18.7140  -23.1270 N   0  0  0  0  0  0  0  0  0  0  0  0
  -19.5670   18.3830  -22.9560 H   0  0  0  0  0  0  0  0  0  0  0  0
  -21.4910   18.4410  -22.1730 C   0  0  0  0  0  0  0  0  0  0  0  0
  -22.6690   18.7810  -22.2530 O   0  0  0  0  0  0  0  0  0  0  0  0
  -20.9300   17.6640  -21.0090 C   0  0  0  0  0  2  0  0  0  0  0  0
  -20.8630   16.2360  -21.3570 N   0  0  0  0  0  0  0  0  0  0  0  0
  -19.6600   15.7310  -21.7930 N   0  0  0  0  0  0  0  0  0  0  0  0
  -18.8790   16.3770  -21.8530 H   0  0  0  0  0  0  0  0  0  0  0  0
  -19.5040   14.4130  -22.1350 C   0  0  0  0  0  0  0  0  0  0  0  0
  -18.4440   13.9300  -22.5280 O   0  0  0  0  0  0  0  0  0  0  0  0
  -20.7020   13.5600  -22.0120 C   0  0  0  0  0  3  0  0  0  0  0  0
  -21.8620   14.0630  -21.5900 C   0  0  0  0  0  3  0  0  0  0  0  0
  -21.9980   15.4890  -21.2260 C   0  0  0  0  0  0  0  0  0  0  0  0
  -23.0910   15.9030  -20.8400 O   0  0  0  0  0  0  0  0  0  0  0  0
  -21.0310   17.2320  -25.4940 N   0  0  0  0  0  0  0  0  0  0  0  0
  -20.0820   17.0270  -25.7990 H   0  0  0  0  0  0  0  0  0  0  0  0
  -21.8530   16.1710  -25.1370 C   0  0  0  0  0  0  0  0  0  0  0  0
  -23.0160   16.2780  -24.7520 O   0  0  0  0  0  0  0  0  0  0  0  0
  -21.1730   14.8220  -25.2700 C   0  0  0  0  0  2  0  0  0  0  0  0
  -21.3990   14.2930  -26.6430 C   0  0  0  0  0  0  0  0  0  0  0  0
  -22.6150   14.1330  -27.1840 C   0  0  0  0  0  3  0  0  0  0  0  0
  -22.7690   13.6400  -28.4560 N   0  0  0  0  0  0  0  0  0  0  0  0
  -23.7150   13.5420  -28.8100 H   0  0  0  0  0  0  0  0  0  0  0  0
  -21.7080   13.2740  -29.2690 C   0  0  0  0  0  0  0  0  0  0  0  0
  -21.8330   12.8320  -30.4080 O   0  0  0  0  0  0  0  0  0  0  0  0
  -20.3530   13.4490  -28.6730 C   0  0  0  0  0  3  0  0  0  0  0  0
  -20.2350   13.9320  -27.4280 C   0  0  0  0  0  3  0  0  0  0  0  0
  1  2  1  0  0  0  0
  2  3  2  0  0  0  0
  3  4  1  0  0  0  0
  4  5  1  0  0  0  0
  5 10  1  1  0  0  0
  6 24  1  6  0  0  0
  6  5  1  0  0  0  0
  7  3  1  0  0  0  0
  7  6  1  0  0  0  0
  8  7  2  0  0  0  0
  9  1  2  0  0  0  0
  9  8  1  0  0  0  0
 10 11  1  0  0  0  0
 10 12  1  0  0  0  0
 12 14  1  0  0  0  0
 13 12  2  0  0  0  0
 15 22  1  0  0  0  0
 15 14  1  0  0  0  0
 16 15  1  0  0  0  0
 17 16  1  0  0  0  0
 18 20  1  0  0  0  0
 18 16  1  0  0  0  0
 19 18  2  0  0  0  0
 20 21  2  0  0  0  0
 21 22  1  0  0  0  0
 22 23  2  0  0  0  0
 24 26  1  0  0  0  0
 25 24  1  0  0  0  0
 26 27  2  0  0  0  0
 28 26  1  0  0  0  0
 29 28  1  0  0  0  0
 30 29  2  0  0  0  0
 31 30  1  0  0  0  0
 32 31  1  0  0  0  0
 33 35  1  0  0  0  0
 33 31  1  0  0  0  0
 34 33  2  0  0  0  0
 35 36  2  0  0  0  0
 36 29  1  0  0  0  0
M  END
>  <VSCORE>
 -8.7

>  <MODEL>
1

>  <TORSDO>
F 6

$$$$
4
 OpenBabel08042114533D

 37 39  0  0  1  0  0  0  0  0999 V2000
  -21.1100   15.6290  -24.7450 C   0  0  1  0  0  3  0  0  0  0  0  0
  -22.6360   15.2100  -20.7370 C   0  0  0  0  0  3  0  0  0  0  0  0
  -21.8050   14.2260  -21.2740 C   0  0  0  0  0  3  0  0  0  0  0  0
  -21.3110   14.3620  -22.5710 C   0  0  0  0  0  3  0  0  0  0  0  0
  -21.6480   15.4820  -23.3320 C   0  0  0  0  0  0  0  0  0  0  0  0
  -22.4790   16.4650  -22.7950 C   0  0  0  0  0  3  0  0  0  0  0  0
  -22.9730   16.3290  -21.4970 C   0  0  0  0  0  3  0  0  0  0  0  0
  -20.1590   16.7450  -24.8250 N   0  0  0  0  0  0  0  0  0  0  0  0
  -19.2820   16.6200  -24.3520 H   0  0  0  0  0  0  0  0  0  0  0  0
  -20.4470   17.8760  -25.5470 C   0  0  0  0  0  0  0  0  0  0  0  0
  -21.4760   18.0910  -26.1800 O   0  0  0  0  0  0  0  0  0  0  0  0
  -19.3270   18.8540  -25.4770 C   0  0  0  0  0  3  0  0  0  0  0  0
  -19.4510   20.0590  -26.0490 C   0  0  0  0  0  3  0  0  0  0  0  0
  -18.4110   21.0490  -26.0210 C   0  0  0  0  0  0  0  0  0  0  0  0
  -18.5150   22.2080  -25.0970 C   0  0  0  0  0  0  0  0  0  0  0  0
  -19.4650   22.3670  -24.3380 O   0  0  0  0  0  0  0  0  0  0  0  0
  -17.4430   23.0770  -25.1800 N   0  0  0  0  0  0  0  0  0  0  0  0
  -17.4330   23.8980  -24.5820 H   0  0  0  0  0  0  0  0  0  0  0  0
  -16.3940   22.8650  -26.0450 C   0  0  0  0  0  3  0  0  0  0  0  0
  -16.2920   21.8620  -26.8530 N   0  0  0  0  0  0  0  0  0  0  0  0
  -17.3310   20.9630  -26.8130 C   0  0  0  0  0  3  0  0  0  0  0  0
  -20.4610   14.3450  -25.2820 C   0  0  0  0  0  2  0  0  0  0  0  0
  -20.2210   14.4120  -26.7060 N   0  0  0  0  0  0  0  0  0  0  0  0
  -19.3210   14.7550  -27.0280 H   0  0  0  0  0  0  0  0  0  0  0  0
  -21.1580   14.0300  -27.6540 C   0  0  0  0  0  0  0  0  0  0  0  0
  -22.2810   13.5980  -27.4070 O   0  0  0  0  0  0  0  0  0  0  0  0
  -20.6300   14.2120  -29.0540 C   0  0  0  0  0  2  0  0  0  0  0  0
  -21.1180   15.4740  -29.6010 N   0  0  0  0  0  0  0  0  0  0  0  0
  -20.4680   16.6780  -29.2970 C   0  0  0  0  0  0  0  0  0  0  0  0
  -19.4750   16.7690  -28.5750 O   0  0  0  0  0  0  0  0  0  0  0  0
  -21.0540   17.9260  -29.9150 C   0  0  0  0  0  0  0  0  0  0  0  0
  -22.1360   17.8040  -30.6990 C   0  0  0  0  0  3  0  0  0  0  0  0
  -22.7470   16.5310  -30.9620 C   0  0  0  0  0  3  0  0  0  0  0  0
  -22.2320   15.4250  -30.4180 C   0  0  0  0  0  3  0  0  0  0  0  0
  -20.4260   19.1020  -29.6240 N   0  0  0  0  0  0  0  0  0  0  0  0
  -19.8870   19.5440  -30.3370 H   0  0  0  0  0  0  0  0  0  0  0  0
  -20.5260   19.4820  -28.7080 H   0  0  0  0  0  0  0  0  0  0  0  0
  1 22  1  1  0  0  0
  1  5  1  0  0  0  0
  3  2  1  0  0  0  0
  4  3  2  0  0  0  0
  5  6  2  0  0  0  0
  5  4  1  0  0  0  0
  6  7  1  0  0  0  0
  7  2  2  0  0  0  0
  8  1  1  0  0  0  0
  8  9  1  0  0  0  0
 10 12  1  0  0  0  0
 10  8  1  0  0  0  0
 11 10  2  0  0  0  0
 13 14  1  0  0  0  0
 13 12  2  0  0  0  0
 14 15  1  0  0  0  0
 15 16  2  0  0  0  0
 17 15  1  0  0  0  0
 17 18  1  0  0  0  0
 19 17  1  0  0  0  0
 20 21  1  0  0  0  0
 20 19  2  0  0  0  0
 21 14  2  0  0  0  0
 23 22  1  0  0  0  0
 24 23  1  0  0  0  0
 25 26  2  0  0  0  0
 25 23  1  0  0  0  0
 27 25  1  0  0  0  0
 28 29  1  0  0  0  0
 28 27  1  0  0  0  0
 29 30  2  0  0  0  0
 31 35  1  0  0  0  0
 31 29  1  0  0  0  0
 32 31  2  0  0  0  0
 33 32  1  0  0  0  0
 33 34  2  0  0  0  0
 34 28  1  0  0  0  0
 35 37  1  0  0  0  0
 36 35  1  0  0  0  0
M  END
>  <VSCORE>
 -8.2

>  <MODEL>
1

>  <TORSDO>
F 9

$$$$
50
 OpenBabel08042114533D

 38 41  0  0  1  0  0  0  0  0999 V2000
  -20.3100   19.0550  -29.7150 C   0  0  1  0  0  3  0  0  0  0  0  0
  -22.0700   12.7850  -29.4710 C   0  0  0  0  0  3  0  0  0  0  0  0
  -20.9410   13.4340  -28.9740 C   0  0  0  0  0  3  0  0  0  0  0  0
  -20.7740   14.8180  -29.1500 C   0  0  0  0  0  0  0  0  0  0  0  0
  -21.7680   15.5510  -29.8410 C   0  0  0  0  0  0  0  0  0  0  0  0
  -21.6010   16.9350  -30.0160 C   0  0  0  0  0  3  0  0  0  0  0  0
  -20.4710   17.5850  -29.5200 C   0  0  0  0  0  0  0  0  0  0  0  0
  -19.4940   16.8630  -28.8400 C   0  0  0  0  0  3  0  0  0  0  0  0
  -22.8980   14.8810  -30.3340 C   0  0  0  0  0  3  0  0  0  0  0  0
  -19.6440   15.4880  -28.6560 C   0  0  0  0  0  3  0  0  0  0  0  0
  -23.0470   13.5060  -30.1500 C   0  0  0  0  0  3  0  0  0  0  0  0
  -20.8570   19.4980  -31.0150 N   0  0  0  0  0  0  0  0  0  0  0  0
  -21.5580   18.9390  -31.4610 H   0  0  0  0  0  0  0  0  0  0  0  0
  -20.4360   20.6480  -31.6290 C   0  0  0  0  0  0  0  0  0  0  0  0
  -19.5900   21.4310  -31.2070 O   0  0  0  0  0  0  0  0  0  0  0  0
  -21.1640   20.8390  -32.9350 C   0  0  0  0  0  2  0  0  0  0  0  0
  -22.1690   21.9020  -32.7890 N   0  0  0  0  0  0  0  0  0  0  0  0
  -21.7660   23.2040  -32.9810 N   0  0  0  0  0  0  0  0  0  0  0  0
  -20.7910   23.3610  -33.2140 H   0  0  0  0  0  0  0  0  0  0  0  0
  -22.6350   24.2590  -32.8660 C   0  0  0  0  0  0  0  0  0  0  0  0
  -22.3090   25.4320  -33.0330 O   0  0  0  0  0  0  0  0  0  0  0  0
  -24.0300   23.9230  -32.5240 C   0  0  0  0  0  3  0  0  0  0  0  0
  -24.4060   22.6580  -32.3390 C   0  0  0  0  0  3  0  0  0  0  0  0
  -23.4470   21.5410  -32.4690 C   0  0  0  0  0  0  0  0  0  0  0  0
  -23.8440   20.3900  -32.2900 O   0  0  0  0  0  0  0  0  0  0  0  0
  -20.9350   19.9160  -28.5910 C   0  0  0  0  0  2  0  0  0  0  0  0
  -19.9530   20.7580  -27.9600 N   0  0  0  0  0  0  0  0  0  0  0  0
  -19.7800   21.6820  -28.3520 H   0  0  0  0  0  0  0  0  0  0  0  0
  -19.2320   20.3680  -26.8450 C   0  0  0  0  0  0  0  0  0  0  0  0
  -19.3210   19.2960  -26.2560 O   0  0  0  0  0  0  0  0  0  0  0  0
  -18.2860   21.4020  -26.3860 C   0  0  0  0  0  0  0  0  0  0  0  0
  -16.8620   21.4240  -26.7410 C   0  0  0  0  0  3  0  0  0  0  0  0
  -15.9960   22.3050  -26.3640 N   0  0  0  0  0  0  0  0  0  0  0  0
  -16.4640   23.2970  -25.5660 N   0  0  0  0  0  0  0  0  0  0  0  0
  -15.7630   23.9760  -25.2850 H   0  0  0  0  0  0  0  0  0  0  0  0
  -17.7670   23.4270  -25.1410 C   0  0  0  0  0  0  0  0  0  0  0  0
  -18.1590   24.3400  -24.4170 O   0  0  0  0  0  0  0  0  0  0  0  0
  -18.7180   22.3890  -25.6000 C   0  0  0  0  0  3  0  0  0  0  0  0
  1  7  1  0  0  0  0
  1 26  1  1  0  0  0
  2  3  1  0  0  0  0
  4  3  2  0  0  0  0
  4 10  1  0  0  0  0
  5  4  1  0  0  0  0
  6  5  1  0  0  0  0
  6  7  2  0  0  0  0
  7  8  1  0  0  0  0
  8 10  2  0  0  0  0
  9 11  1  0  0  0  0
  9  5  2  0  0  0  0
 11  2  2  0  0  0  0
 12  1  1  0  0  0  0
 13 12  1  0  0  0  0
 14 15  2  0  0  0  0
 14 12  1  0  0  0  0
 16 17  1  0  0  0  0
 16 14  1  0  0  0  0
 17 24  1  0  0  0  0
 18 20  1  0  0  0  0
 18 17  1  0  0  0  0
 19 18  1  0  0  0  0
 20 22  1  0  0  0  0
 21 20  2  0  0  0  0
 22 23  2  0  0  0  0
 24 23  1  0  0  0  0
 24 25  2  0  0  0  0
 26 27  1  0  0  0  0
 27 29  1  0  0  0  0
 28 27  1  0  0  0  0
 29 31  1  0  0  0  0
 29 30  2  0  0  0  0
 31 38  2  0  0  0  0
 32 31  1  0  0  0  0
 32 33  2  0  0  0  0
 33 34  1  0  0  0  0
 34 35  1  0  0  0  0
 34 36  1  0  0  0  0
 36 37  2  0  0  0  0
 38 36  1  0  0  0  0
M  END
>  <VSCORE>
 -9.7

>  <MODEL>
1

>  <TORSDO>
F 7

$$$$
51
 OpenBabel08042114533D

 38 41  0  0  1  0  0  0  0  0999 V2000
  -23.9360   21.6350  -33.1690 C   0  0  0  0  0  3  0  0  0  0  0  0
  -24.4840   20.6540  -32.3410 C   0  0  0  0  0  3  0  0  0  0  0  0
  -23.6230   19.7860  -31.6920 C   0  0  0  0  0  0  0  0  0  0  0  0
  -23.9720   18.6880  -30.7350 C   0  0  0  0  0  2  0  0  0  0  0  0
  -22.6660   17.8710  -30.7370 C   0  0  1  0  0  3  0  0  0  0  0  0
  -21.5170   18.8720  -31.0150 C   0  0  1  0  0  3  0  0  0  0  0  0
  -22.2340   19.8950  -31.8470 C   0  0  0  0  0  0  0  0  0  0  0  0
  -21.6830   20.8690  -32.6620 C   0  0  0  0  0  3  0  0  0  0  0  0
  -22.5450   21.7410  -33.3300 C   0  0  0  0  0  3  0  0  0  0  0  0
  -22.5030   17.0940  -29.5390 N   0  0  0  0  0  0  0  0  0  0  0  0
  -22.1970   17.5750  -28.6940 H   0  0  0  0  0  0  0  0  0  0  0  0
  -22.7850   15.7360  -29.4910 C   0  0  0  0  0  0  0  0  0  0  0  0
  -23.1930   15.0640  -30.4320 O   0  0  0  0  0  0  0  0  0  0  0  0
  -22.5410   15.1600  -28.1390 C   0  0  0  0  0  3  0  0  0  0  0  0
  -21.8390   15.8520  -27.2330 C   0  0  0  0  0  3  0  0  0  0  0  0
  -21.5660   15.3580  -25.9120 C   0  0  0  0  0  0  0  0  0  0  0  0
  -20.5270   14.3150  -25.7110 C   0  0  0  0  0  0  0  0  0  0  0  0
  -19.8750   13.8430  -26.6380 O   0  0  0  0  0  0  0  0  0  0  0  0
  -20.3720   13.9360  -24.3910 N   0  0  0  0  0  0  0  0  0  0  0  0
  -19.6770   13.2250  -24.1790 H   0  0  0  0  0  0  0  0  0  0  0  0
  -21.1210   14.4850  -23.3690 C   0  0  0  0  0  0  0  0  0  0  0  0
  -22.0280   15.3950  -23.5420 N   0  0  0  0  0  0  0  0  0  0  0  0
  -20.8250   13.9590  -21.9940 C   0  0  0  0  0  1  0  0  0  0  0  0
  -22.2240   15.8100  -24.8350 C   0  0  0  0  0  3  0  0  0  0  0  0
  -20.9590   19.4610  -29.8260 N   0  0  0  0  0  0  0  0  0  0  0  0
  -21.2940   20.3810  -29.5490 H   0  0  0  0  0  0  0  0  0  0  0  0
  -20.0250   18.8020  -29.0410 C   0  0  0  0  0  0  0  0  0  0  0  0
  -19.5800   17.6800  -29.2590 O   0  0  0  0  0  0  0  0  0  0  0  0
  -19.6070   19.6180  -27.8670 C   0  0  0  0  0  3  0  0  0  0  0  0
  -19.1190   20.8520  -28.0460 C   0  0  0  0  0  3  0  0  0  0  0  0
  -18.6960   21.6920  -26.9610 C   0  0  0  0  0  0  0  0  0  0  0  0
  -17.2930   22.1800  -26.9030 C   0  0  0  0  0  0  0  0  0  0  0  0
  -16.4580   21.8960  -27.7560 O   0  0  0  0  0  0  0  0  0  0  0  0
  -17.0320   22.9750  -25.8040 N   0  0  0  0  0  0  0  0  0  0  0  0
  -16.0960   23.3520  -25.6860 H   0  0  0  0  0  0  0  0  0  0  0  0
  -17.9960   23.2720  -24.8670 C   0  0  0  0  0  3  0  0  0  0  0  0
  -19.2180   22.8540  -24.9070 N   0  0  0  0  0  0  0  0  0  0  0  0
  -19.5360   22.0580  -25.9800 C   0  0  0  0  0  3  0  0  0  0  0  0
  1  2  1  0  0  0  0
  2  3  2  0  0  0  0
  3  4  1  0  0  0  0
  5  4  1  0  0  0  0
  5 10  1  1  0  0  0
  6  5  1  0  0  0  0
  6 25  1  1  0  0  0
  7  3  1  0  0  0  0
  7  6  1  0  0  0  0
  8  7  2  0  0  0  0
  9  1  2  0  0  0  0
  9  8  1  0  0  0  0
 10 12  1  0  0  0  0
 10 11  1  0  0  0  0
 12 14  1  0  0  0  0
 13 12  2  0  0  0  0
 14 15  2  0  0  0  0
 15 16  1  0  0  0  0
 16 17  1  0  0  0  0
 16 24  2  0  0  0  0
 17 19  1  0  0  0  0
 18 17  2  0  0  0  0
 19 20  1  0  0  0  0
 19 21  1  0  0  0  0
 21 23  1  0  0  0  0
 22 21  2  0  0  0  0
 24 22  1  0  0  0  0
 25 26  1  0  0  0  0
 25 27  1  0  0  0  0
 27 29  1  0  0  0  0
 28 27  2  0  0  0  0
 30 29  2  0  0  0  0
 30 31  1  0  0  0  0
 31 32  1  0  0  0  0
 31 38  2  0  0  0  0
 32 34  1  0  0  0  0
 33 32  2  0  0  0  0
 34 35  1  0  0  0  0
 34 36  1  0  0  0  0
 37 36  2  0  0  0  0
 38 37  1  0  0  0  0
M  END
>  <VSCORE>
 -9.0

>  <MODEL>
1

>  <TORSDO>
F 6

$$$$
52
 OpenBabel08042114533D

 38 40  0  0  1  0  0  0  0  0999 V2000
  -20.0260   20.6360  -26.2730 C   0  0  1  0  0  3  0  0  0  0  0  0
  -16.4300   22.9470  -25.7370 C   0  0  0  0  0  3  0  0  0  0  0  0
  -17.6250   23.3730  -25.1610 C   0  0  0  0  0  3  0  0  0  0  0  0
  -18.7900   22.6250  -25.3340 C   0  0  0  0  0  3  0  0  0  0  0  0
  -18.7590   21.4500  -26.0850 C   0  0  0  0  0  0  0  0  0  0  0  0
  -17.5620   21.0220  -26.6610 C   0  0  0  0  0  3  0  0  0  0  0  0
  -16.3980   21.7710  -26.4870 C   0  0  0  0  0  3  0  0  0  0  0  0
  -20.0260   19.9660  -27.5800 N   0  0  0  0  0  0  0  0  0  0  0  0
  -19.6560   19.0330  -27.6460 H   0  0  0  0  0  0  0  0  0  0  0  0
  -20.5130   20.5670  -28.7170 C   0  0  0  0  0  0  0  0  0  0  0  0
  -20.9910   21.6950  -28.7900 O   0  0  0  0  0  0  0  0  0  0  0  0
  -20.3780   19.6450  -29.9030 C   0  0  0  0  0  2  0  0  0  0  0  0
  -21.6490   19.6070  -30.6440 N   0  0  0  0  0  0  0  0  0  0  0  0
  -22.0680   20.7580  -31.2690 N   0  0  0  0  0  0  0  0  0  0  0  0
  -21.4750   21.5780  -31.1840 H   0  0  0  0  0  0  0  0  0  0  0  0
  -23.2360   20.8130  -31.9840 C   0  0  0  0  0  0  0  0  0  0  0  0
  -23.6400   21.8250  -32.5550 O   0  0  0  0  0  0  0  0  0  0  0  0
  -24.0250   19.5690  -32.0460 C   0  0  0  0  0  3  0  0  0  0  0  0
  -23.6080   18.4610  -31.4340 C   0  0  0  0  0  3  0  0  0  0  0  0
  -22.3410   18.4310  -30.6710 C   0  0  0  0  0  0  0  0  0  0  0  0
  -22.0000   17.3820  -30.1250 O   0  0  0  0  0  0  0  0  0  0  0  0
  -20.2560   19.6050  -25.1570 C   0  0  0  0  0  2  0  0  0  0  0  0
  -20.6510   18.3180  -25.6790 N   0  0  0  0  0  0  0  0  0  0  0  0
  -20.6930   18.2110  -26.6890 H   0  0  0  0  0  0  0  0  0  0  0  0
  -20.9260   17.2400  -24.8540 C   0  0  0  0  0  0  0  0  0  0  0  0
  -20.8690   17.2500  -23.6290 O   0  0  0  0  0  0  0  0  0  0  0  0
  -21.3040   16.0270  -25.6320 C   0  0  0  0  0  3  0  0  0  0  0  0
  -21.1010   15.9890  -26.9550 C   0  0  0  0  0  3  0  0  0  0  0  0
  -21.4420   14.8530  -27.7650 C   0  0  0  0  0  0  0  0  0  0  0  0
  -20.5180   14.4010  -28.8500 C   0  0  0  0  0  0  0  0  0  0  0  0
  -19.4560   14.9740  -29.0790 O   0  0  0  0  0  0  0  0  0  0  0  0
  -20.9520   13.2930  -29.5690 N   0  0  0  0  0  0  0  0  0  0  0  0
  -20.3460   12.9640  -30.3150 H   0  0  0  0  0  0  0  0  0  0  0  0
  -22.1400   12.5900  -29.3670 C   0  0  0  0  0  0  0  0  0  0  0  0
  -22.4600   11.6120  -30.0440 O   0  0  0  0  0  0  0  0  0  0  0  0
  -22.9280   13.0840  -28.3400 N   0  0  0  0  0  0  0  0  0  0  0  0
  -23.8080   12.6170  -28.1390 H   0  0  0  0  0  0  0  0  0  0  0  0
  -22.5790   14.1680  -27.5820 C   0  0  0  0  0  3  0  0  0  0  0  0
  1  5  1  0  0  0  0
  1 22  1  1  0  0  0
  2  3  1  0  0  0  0
  4  3  2  0  0  0  0
  5  4  1  0  0  0  0
  6  7  1  0  0  0  0
  6  5  2  0  0  0  0
  7  2  2  0  0  0  0
  8  1  1  0  0  0  0
  9  8  1  0  0  0  0
 10  8  1  0  0  0  0
 11 10  2  0  0  0  0
 12 10  1  0  0  0  0
 13 12  1  0  0  0  0
 14 15  1  0  0  0  0
 14 13  1  0  0  0  0
 16 14  1  0  0  0  0
 17 16  2  0  0  0  0
 18 16  1  0  0  0  0
 18 19  2  0  0  0  0
 19 20  1  0  0  0  0
 20 13  1  0  0  0  0
 20 21  2  0  0  0  0
 23 22  1  0  0  0  0
 23 25  1  0  0  0  0
 24 23  1  0  0  0  0
 25 26  2  0  0  0  0
 27 25  1  0  0  0  0
 28 27  2  0  0  0  0
 29 38  2  0  0  0  0
 29 28  1  0  0  0  0
 30 29  1  0  0  0  0
 31 30  2  0  0  0  0
 32 34  1  0  0  0  0
 32 30  1  0  0  0  0
 33 32  1  0  0  0  0
 34 36  1  0  0  0  0
 35 34  2  0  0  0  0
 36 37  1  0  0  0  0
 36 38  1  0  0  0  0
M  END
>  <VSCORE>
 -8.1

>  <MODEL>
1

>  <TORSDO>
F 8

$$$$
53
 OpenBabel08042114533D

 38 41  0  0  1  0  0  0  0  0999 V2000
  -23.2790   14.8000  -30.6980 C   0  0  0  0  0  3  0  0  0  0  0  0
  -22.8930   13.9130  -29.6930 C   0  0  0  0  0  3  0  0  0  0  0  0
  -21.8930   14.3060  -28.8170 C   0  0  0  0  0  0  0  0  0  0  0  0
  -21.2940   13.5090  -27.7000 C   0  0  0  0  0  2  0  0  0  0  0  0
  -20.5710   14.6010  -26.8870 C   0  0  1  0  0  3  0  0  0  0  0  0
  -20.1930   15.7110  -27.9030 C   0  0  1  0  0  3  0  0  0  0  0  0
  -21.2740   15.5560  -28.9360 C   0  0  0  0  0  0  0  0  0  0  0  0
  -21.6430   16.4340  -29.9440 C   0  0  0  0  0  3  0  0  0  0  0  0
  -22.6590   16.0520  -30.8240 C   0  0  0  0  0  3  0  0  0  0  0  0
  -21.4240   15.0840  -25.8210 N   0  0  0  0  0  0  0  0  0  0  0  0
  -22.2970   15.5470  -26.0730 H   0  0  0  0  0  0  0  0  0  0  0  0
  -21.1170   14.9500  -24.4700 C   0  0  0  0  0  0  0  0  0  0  0  0
  -20.1040   14.4150  -24.0280 O   0  0  0  0  0  0  0  0  0  0  0  0
  -22.1880   15.5490  -23.5940 C   0  0  0  0  0  2  0  0  0  0  0  0
  -21.8570   16.9500  -23.2980 N   0  0  0  0  0  0  0  0  0  0  0  0
  -21.1080   17.2670  -22.1620 C   0  0  0  0  0  0  0  0  0  0  0  0
  -20.6810   16.4440  -21.3500 O   0  0  0  0  0  0  0  0  0  0  0  0
  -20.8230   18.7350  -21.9510 C   0  0  0  0  0  0  0  0  0  0  0  0
  -21.2980   19.6140  -22.8480 C   0  0  0  0  0  3  0  0  0  0  0  0
  -22.0630   19.1990  -23.9910 C   0  0  0  0  0  3  0  0  0  0  0  0
  -22.3170   17.9010  -24.1820 C   0  0  0  0  0  3  0  0  0  0  0  0
  -20.0920   19.0600  -20.8460 N   0  0  0  0  0  0  0  0  0  0  0  0
  -20.3580   19.8600  -20.3150 H   0  0  0  0  0  0  0  0  0  0  0  0
  -19.3130   18.4860  -20.6040 H   0  0  0  0  0  0  0  0  0  0  0  0
  -20.1130   17.0230  -27.3230 N   0  0  0  0  0  0  0  0  0  0  0  0
  -20.5380   17.1680  -26.4090 H   0  0  0  0  0  0  0  0  0  0  0  0
  -19.4490   18.0700  -27.9470 C   0  0  0  0  0  0  0  0  0  0  0  0
  -18.8720   18.0000  -29.0270 O   0  0  0  0  0  0  0  0  0  0  0  0
  -19.5030   19.3230  -27.1450 C   0  0  0  0  0  3  0  0  0  0  0  0
  -18.4010   20.0690  -26.9900 C   0  0  0  0  0  3  0  0  0  0  0  0
  -18.3820   21.2880  -26.2310 C   0  0  0  0  0  0  0  0  0  0  0  0
  -17.2220   22.2100  -26.3390 C   0  0  0  0  0  0  0  0  0  0  0  0
  -16.2570   21.9790  -27.0620 O   0  0  0  0  0  0  0  0  0  0  0  0
  -17.3400   23.3400  -25.5520 N   0  0  0  0  0  0  0  0  0  0  0  0
  -16.5910   24.0260  -25.5670 H   0  0  0  0  0  0  0  0  0  0  0  0
  -18.4380   23.5640  -24.7540 C   0  0  0  0  0  3  0  0  0  0  0  0
  -19.4530   22.7700  -24.6510 N   0  0  0  0  0  0  0  0  0  0  0  0
  -19.3880   21.6290  -25.4120 C   0  0  0  0  0  3  0  0  0  0  0  0
  1  2  1  0  0  0  0
  2  3  2  0  0  0  0
  3  4  1  0  0  0  0
  4  5  1  0  0  0  0
  5 10  1  1  0  0  0
  6 25  1  1  0  0  0
  6  5  1  0  0  0  0
  7  3  1  0  0  0  0
  7  6  1  0  0  0  0
  8  7  2  0  0  0  0
  9  1  2  0  0  0  0
  9  8  1  0  0  0  0
 10 12  1  0  0  0  0
 11 10  1  0  0  0  0
 12 13  2  0  0  0  0
 12 14  1  0  0  0  0
 14 15  1  0  0  0  0
 15 16  1  0  0  0  0
 16 18  1  0  0  0  0
 16 17  2  0  0  0  0
 18 22  1  0  0  0  0
 19 18  2  0  0  0  0
 20 19  1  0  0  0  0
 21 20  2  0  0  0  0
 21 15  1  0  0  0  0
 22 24  1  0  0  0  0
 22 23  1  0  0  0  0
 25 26  1  0  0  0  0
 27 25  1  0  0  0  0
 27 29  1  0  0  0  0
 28 27  2  0  0  0  0
 29 30  2  0  0  0  0
 30 31  1  0  0  0  0
 31 38  2  0  0  0  0
 32 31  1  0  0  0  0
 32 34  1  0  0  0  0
 33 32  2  0  0  0  0
 34 36  1  0  0  0  0
 35 34  1  0  0  0  0
 36 37  2  0  0  0  0
 38 37  1  0  0  0  0
M  END
>  <VSCORE>
 -8.5

>  <MODEL>
1

>  <TORSDO>
F 7

$$$$
54
 OpenBabel08042114533D

 40 43  0  0  1  0  0  0  0  0999 V2000
  -20.2420   19.0380  -29.6240 C   0  0  1  0  0  3  0  0  0  0  0  0
  -22.0310   12.7730  -29.4330 C   0  0  0  0  0  3  0  0  0  0  0  0
  -20.8690   13.4040  -28.9870 C   0  0  0  0  0  3  0  0  0  0  0  0
  -20.7030   14.7900  -29.1380 C   0  0  0  0  0  0  0  0  0  0  0  0
  -21.7300   15.5470  -29.7490 C   0  0  0  0  0  0  0  0  0  0  0  0
  -21.5640   16.9340  -29.9000 C   0  0  0  0  0  3  0  0  0  0  0  0
  -20.4020   17.5650  -29.4550 C   0  0  0  0  0  0  0  0  0  0  0  0
  -19.3910   16.8200  -28.8550 C   0  0  0  0  0  3  0  0  0  0  0  0
  -22.8940   14.8970  -30.1910 C   0  0  0  0  0  3  0  0  0  0  0  0
  -19.5390   15.4420  -28.6970 C   0  0  0  0  0  3  0  0  0  0  0  0
  -23.0410   13.5180  -30.0330 C   0  0  0  0  0  3  0  0  0  0  0  0
  -21.4570   19.6580  -30.1920 N   0  0  0  0  0  0  0  0  0  0  0  0
  -22.3300   19.3160  -29.8400 H   0  0  0  0  0  0  0  0  0  0  0  0
  -21.3690   20.6670  -31.1100 C   0  0  0  0  0  0  0  0  0  0  0  0
  -20.3380   21.1610  -31.5570 O   0  0  0  0  0  0  0  0  0  0  0  0
  -22.7240   21.1250  -31.5230 C   0  0  0  0  0  3  0  0  0  0  0  0
  -23.0340   21.2210  -32.8220 C   0  0  0  0  0  3  0  0  0  0  0  0
  -24.3200   21.6560  -33.2890 C   0  0  0  0  0  0  0  0  0  0  0  0
  -24.4220   22.8320  -34.1930 C   0  0  0  0  0  0  0  0  0  0  0  0
  -23.4400   23.4630  -34.5710 O   0  0  0  0  0  0  0  0  0  0  0  0
  -25.7200   23.1340  -34.5590 N   0  0  0  0  0  0  0  0  0  0  0  0
  -25.8810   23.9240  -35.1770 H   0  0  0  0  0  0  0  0  0  0  0  0
  -26.7960   22.4020  -34.1140 C   0  0  0  0  0  3  0  0  0  0  0  0
  -26.7200   21.3780  -33.3280 N   0  0  0  0  0  0  0  0  0  0  0  0
  -25.4510   21.0310  -32.9310 C   0  0  0  0  0  3  0  0  0  0  0  0
  -19.8590   19.7870  -28.3250 C   0  0  0  0  0  2  0  0  0  0  0  0
  -20.5710   19.2720  -27.1850 N   0  0  0  0  0  0  0  0  0  0  0  0
  -21.5640   19.0700  -27.2880 H   0  0  0  0  0  0  0  0  0  0  0  0
  -19.9750   19.0350  -25.9510 C   0  0  0  0  0  0  0  0  0  0  0  0
  -18.7920   19.2330  -25.6900 O   0  0  0  0  0  0  0  0  0  0  0  0
  -20.9680   18.5020  -24.9490 C   0  0  0  0  0  2  0  0  0  0  0  0
  -20.8560   17.0380  -24.8760 N   0  0  0  0  0  0  0  0  0  0  0  0
  -19.9430   16.5010  -23.9980 N   0  0  0  0  0  0  0  0  0  0  0  0
  -19.3910   17.1500  -23.4450 H   0  0  0  0  0  0  0  0  0  0  0  0
  -19.7720   15.1480  -23.8610 C   0  0  0  0  0  0  0  0  0  0  0  0
  -18.9670   14.6360  -23.0860 O   0  0  0  0  0  0  0  0  0  0  0  0
  -20.6230   14.2930  -24.7110 C   0  0  0  0  0  3  0  0  0  0  0  0
  -21.5020   14.8250  -25.5580 C   0  0  0  0  0  3  0  0  0  0  0  0
  -21.6650   16.2900  -25.6830 C   0  0  0  0  0  0  0  0  0  0  0  0
  -22.4920   16.7300  -26.4810 O   0  0  0  0  0  0  0  0  0  0  0  0
  1  7  1  0  0  0  0
  1 26  1  1  0  0  0
  2  3  1  0  0  0  0
  4  3  2  0  0  0  0
  4 10  1  0  0  0  0
  5  4  1  0  0  0  0
  6  5  1  0  0  0  0
  6  7  2  0  0  0  0
  7  8  1  0  0  0  0
  8 10  2  0  0  0  0
  9 11  1  0  0  0  0
  9  5  2  0  0  0  0
 11  2  2  0  0  0  0
 12 13  1  0  0  0  0
 12  1  1  0  0  0  0
 14 12  1  0  0  0  0
 15 14  2  0  0  0  0
 16 14  1  0  0  0  0
 17 16  2  0  0  0  0
 18 25  2  0  0  0  0
 18 17  1  0  0  0  0
 19 18  1  0  0  0  0
 20 19  2  0  0  0  0
 21 19  1  0  0  0  0
 21 23  1  0  0  0  0
 22 21  1  0  0  0  0
 23 24  2  0  0  0  0
 24 25  1  0  0  0  0
 26 27  1  0  0  0  0
 27 29  1  0  0  0  0
 28 27  1  0  0  0  0
 29 30  2  0  0  0  0
 29 31  1  0  0  0  0
 31 32  1  0  0  0  0
 32 33  1  0  0  0  0
 33 35  1  0  0  0  0
 33 34  1  0  0  0  0
 35 36  2  0  0  0  0
 37 35  1  0  0  0  0
 38 37  2  0  0  0  0
 39 38  1  0  0  0  0
 39 32  1  0  0  0  0
 40 39  2  0  0  0  0
M  END
>  <VSCORE>
 -8.9

>  <MODEL>
1

>  <TORSDO>
F 8

$$$$
55
 OpenBabel08042114533D

 43 46  0  0  1  0  0  0  0  0999 V2000
  -21.3250   14.7930  -28.6020 C   0  0  1  0  0  3  0  0  0  0  0  0
  -21.2770   15.0180  -22.0890 C   0  0  0  0  0  3  0  0  0  0  0  0
  -22.1000   15.6560  -23.0170 C   0  0  0  0  0  3  0  0  0  0  0  0
  -21.9180   15.4520  -24.3950 C   0  0  0  0  0  0  0  0  0  0  0  0
  -20.8890   14.5880  -24.8370 C   0  0  0  0  0  0  0  0  0  0  0  0
  -20.7080   14.3830  -26.2150 C   0  0  0  0  0  3  0  0  0  0  0  0
  -21.5310   15.0220  -27.1430 C   0  0  0  0  0  0  0  0  0  0  0  0
  -22.5440   15.8720  -26.7080 C   0  0  0  0  0  3  0  0  0  0  0  0
  -20.0700   13.9540  -23.8880 C   0  0  0  0  0  3  0  0  0  0  0  0
  -22.7380   16.0860  -25.3440 C   0  0  0  0  0  3  0  0  0  0  0  0
  -20.2640   14.1690  -22.5240 C   0  0  0  0  0  3  0  0  0  0  0  0
  -22.3760   15.4440  -29.4120 N   0  0  0  0  0  0  0  0  0  0  0  0
  -22.7360   16.3060  -29.0520 H   0  0  0  0  0  0  0  0  0  0  0  0
  -22.7840   14.9050  -30.6000 C   0  0  0  0  0  0  0  0  0  0  0  0
  -22.3640   13.8760  -31.1200 O   0  0  0  0  0  0  0  0  0  0  0  0
  -23.8430   15.7450  -31.2240 C   0  0  0  0  0  3  0  0  0  0  0  0
  -23.6550   17.0620  -31.3710 C   0  0  0  0  0  3  0  0  0  0  0  0
  -24.6330   17.9330  -31.9620 C   0  0  0  0  0  0  0  0  0  0  0  0
  -24.3260   19.3740  -32.1510 C   0  0  0  0  0  0  0  0  0  0  0  0
  -23.2540   19.8720  -31.8220 O   0  0  0  0  0  0  0  0  0  0  0  0
  -25.3600   20.0860  -32.7310 N   0  0  0  0  0  0  0  0  0  0  0  0
  -25.2340   21.0810  -32.8960 H   0  0  0  0  0  0  0  0  0  0  0  0
  -26.5490   19.4920  -33.0870 C   0  0  0  0  0  3  0  0  0  0  0  0
  -26.8270   18.2410  -32.9270 N   0  0  0  0  0  0  0  0  0  0  0  0
  -25.8350   17.4820  -32.3560 C   0  0  0  0  0  3  0  0  0  0  0  0
  -19.9400   15.2450  -29.1250 C   0  0  0  0  0  2  0  0  0  0  0  0
  -19.4390   16.3780  -28.3910 N   0  0  0  0  0  0  0  0  0  0  0  0
  -18.7660   16.2050  -27.6470 H   0  0  0  0  0  0  0  0  0  0  0  0
  -19.8130   17.6800  -28.6930 C   0  0  0  0  0  0  0  0  0  0  0  0
  -20.5850   18.0060  -29.5880 O   0  0  0  0  0  0  0  0  0  0  0  0
  -19.1570   18.6720  -27.7960 C   0  0  0  0  0  3  0  0  0  0  0  0
  -19.4580   19.9730  -27.9010 C   0  0  0  0  0  3  0  0  0  0  0  0
  -18.8640   20.9820  -27.0700 C   0  0  0  0  0  0  0  0  0  0  0  0
  -19.6090   21.5370  -25.9050 C   0  0  0  0  0  0  0  0  0  0  0  0
  -20.7400   21.1630  -25.6090 O   0  0  0  0  0  0  0  0  0  0  0  0
  -18.9080   22.5010  -25.2020 N   0  0  0  0  0  0  0  0  0  0  0  0
  -19.3580   22.9220  -24.3940 H   0  0  0  0  0  0  0  0  0  0  0  0
  -17.6280   22.9250  -25.5340 C   0  0  0  0  0  0  0  0  0  0  0  0
  -17.0920   23.8890  -24.7210 N   0  0  0  0  0  0  0  0  0  0  0  0
  -17.6370   24.2210  -23.9590 H   0  0  0  0  0  0  0  0  0  0  0  0
  -16.1770   24.2210  -24.9250 H   0  0  0  0  0  0  0  0  0  0  0  0
  -16.9870   22.4310  -26.5560 N   0  0  0  0  0  0  0  0  0  0  0  0
  -17.6330   21.4700  -27.2920 C   0  0  0  0  0  3  0  0  0  0  0  0
  1 26  1  6  0  0  0
  1  7  1  0  0  0  0
  3  2  2  0  0  0  0
  4  3  1  0  0  0  0
  5  4  1  0  0  0  0
  5  9  1  0  0  0  0
  6  5  2  0  0  0  0
  7  8  2  0  0  0  0
  7  6  1  0  0  0  0
  8 10  1  0  0  0  0
  9 11  2  0  0  0  0
 10  4  2  0  0  0  0
 11  2  1  0  0  0  0
 12 13  1  0  0  0  0
 12  1  1  0  0  0  0
 14 12  1  0  0  0  0
 15 14  2  0  0  0  0
 16 14  1  0  0  0  0
 17 16  2  0  0  0  0
 18 17  1  0  0  0  0
 19 18  1  0  0  0  0
 19 20  2  0  0  0  0
 21 19  1  0  0  0  0
 22 21  1  0  0  0  0
 23 24  2  0  0  0  0
 23 21  1  0  0  0  0
 24 25  1  0  0  0  0
 25 18  2  0  0  0  0
 26 27  1  0  0  0  0
 27 28  1  0  0  0  0
 29 27  1  0  0  0  0
 29 31  1  0  0  0  0
 30 29  2  0  0  0  0
 32 31  2  0  0  0  0
 32 33  1  0  0  0  0
 33 34  1  0  0  0  0
 34 35  2  0  0  0  0
 34 36  1  0  0  0  0
 36 37  1  0  0  0  0
 38 36  1  0  0  0  0
 38 39  1  0  0  0  0
 39 40  1  0  0  0  0
 41 39  1  0  0  0  0
 42 38  2  0  0  0  0
 43 33  2  0  0  0  0
 43 42  1  0  0  0  0
M  END
>  <VSCORE>
 -9.4

>  <MODEL>
1

>  <TORSDO>
F 8

$$$$
56
 OpenBabel08042114533D

 39 42  0  0  1  0  0  0  0  0999 V2000
  -22.1850   21.0980  -32.5680 C   0  0  0  0  0  3  0  0  0  0  0  0
  -22.6190   19.9190  -31.9600 C   0  0  0  0  0  3  0  0  0  0  0  0
  -21.8480   19.3810  -30.9430 C   0  0  0  0  0  0  0  0  0  0  0  0
  -22.1280   18.1570  -30.1270 C   0  0  0  0  0  2  0  0  0  0  0  0
  -20.7370   17.8860  -29.5220 C   0  0  1  0  0  3  0  0  0  0  0  0
  -20.0370   19.2600  -29.3840 C   0  0  1  0  0  3  0  0  0  0  0  0
  -20.6690   20.0100  -30.5200 C   0  0  0  0  0  0  0  0  0  0  0  0
  -20.2350   21.1830  -31.1140 C   0  0  0  0  0  3  0  0  0  0  0  0
  -21.0010   21.7260  -32.1480 C   0  0  0  0  0  3  0  0  0  0  0  0
  -20.8070   17.1280  -28.3030 N   0  0  0  0  0  0  0  0  0  0  0  0
  -21.3960   17.4840  -27.5510 H   0  0  0  0  0  0  0  0  0  0  0  0
  -20.1400   15.9220  -28.1380 C   0  0  0  0  0  0  0  0  0  0  0  0
  -19.4360   15.3810  -28.9850 O   0  0  0  0  0  0  0  0  0  0  0  0
  -20.3740   15.3300  -26.7920 C   0  0  0  0  0  3  0  0  0  0  0  0
  -20.8900   16.0810  -25.8100 C   0  0  0  0  0  3  0  0  0  0  0  0
  -21.1420   15.5760  -24.4890 C   0  0  0  0  0  0  0  0  0  0  0  0
  -22.2670   16.1200  -23.6880 C   0  0  0  0  0  0  0  0  0  0  0  0
  -23.0130   17.0000  -24.1070 O   0  0  0  0  0  0  0  0  0  0  0  0
  -22.3870   15.5390  -22.4390 N   0  0  0  0  0  0  0  0  0  0  0  0
  -23.1380   15.8640  -21.8360 H   0  0  0  0  0  0  0  0  0  0  0  0
  -21.5340   14.5510  -21.9950 C   0  0  0  0  0  0  0  0  0  0  0  0
  -20.5490   14.0750  -22.6910 N   0  0  0  0  0  0  0  0  0  0  0  0
  -21.8050   14.0310  -20.6130 C   0  0  0  0  0  1  0  0  0  0  0  0
  -20.3820   14.6140  -23.9430 C   0  0  0  0  0  3  0  0  0  0  0  0
  -20.2820   19.9130  -28.1250 N   0  0  0  0  0  0  0  0  0  0  0  0
  -21.0690   20.5550  -28.0580 H   0  0  0  0  0  0  0  0  0  0  0  0
  -19.4970   19.7100  -26.9980 C   0  0  0  0  0  0  0  0  0  0  0  0
  -18.5200   18.9640  -26.9430 O   0  0  0  0  0  0  0  0  0  0  0  0
  -19.9590   20.5180  -25.8000 C   0  0  0  0  0  2  0  0  0  0  0  0
  -19.0100   21.6390  -25.5690 C   0  0  0  0  0  0  0  0  0  0  0  0
  -17.7750   21.5490  -26.1690 N   0  0  0  0  0  0  0  0  0  0  0  0
  -17.5750   20.7270  -26.7310 H   0  0  0  0  0  0  0  0  0  0  0  0
  -16.7880   22.5150  -26.0460 C   0  0  0  0  0  0  0  0  0  0  0  0
  -15.6870   22.4180  -26.5900 O   0  0  0  0  0  0  0  0  0  0  0  0
  -17.1410   23.6090  -25.2560 N   0  0  0  0  0  0  0  0  0  0  0  0
  -16.4460   24.3400  -25.1400 H   0  0  0  0  0  0  0  0  0  0  0  0
  -18.3580   23.7900  -24.6140 C   0  0  0  0  0  0  0  0  0  0  0  0
  -18.6380   24.7660  -23.9250 O   0  0  0  0  0  0  0  0  0  0  0  0
  -19.3360   22.6960  -24.8130 C   0  0  0  0  0  3  0  0  0  0  0  0
  1  9  2  0  0  0  0
  1  2  1  0  0  0  0
  2  3  2  0  0  0  0
  3  7  1  0  0  0  0
  3  4  1  0  0  0  0
  4  5  1  0  0  0  0
  5  6  1  0  0  0  0
  5 10  1  1  0  0  0
  6 25  1  1  0  0  0
  7  6  1  0  0  0  0
  8  7  2  0  0  0  0
  9  8  1  0  0  0  0
 10 12  1  0  0  0  0
 10 11  1  0  0  0  0
 12 14  1  0  0  0  0
 13 12  2  0  0  0  0
 14 15  2  0  0  0  0
 15 16  1  0  0  0  0
 16 24  2  0  0  0  0
 16 17  1  0  0  0  0
 17 19  1  0  0  0  0
 18 17  2  0  0  0  0
 19 21  1  0  0  0  0
 19 20  1  0  0  0  0
 21 23  1  0  0  0  0
 22 21  2  0  0  0  0
 24 22  1  0  0  0  0
 25 26  1  0  0  0  0
 25 27  1  0  0  0  0
 27 28  2  0  0  0  0
 27 29  1  0  0  0  0
 29 30  1  0  0  0  0
 30 39  2  0  0  0  0
 31 33  1  0  0  0  0
 31 30  1  0  0  0  0
 32 31  1  0  0  0  0
 33 35  1  0  0  0  0
 34 33  2  0  0  0  0
 35 36  1  0  0  0  0
 35 37  1  0  0  0  0
 37 38  2  0  0  0  0
 39 37  1  0  0  0  0
M  END
>  <VSCORE>
 -9.1

>  <MODEL>
1

>  <TORSDO>
F 6

$$$$
57
 OpenBabel08042114533D

 39 42  0  0  1  0  0  0  0  0999 V2000
  -20.9520   19.1840  -29.5600 C   0  0  1  0  0  3  0  0  0  0  0  0
  -22.2880   12.8240  -30.0430 C   0  0  0  0  0  3  0  0  0  0  0  0
  -23.0040   13.9400  -30.4720 C   0  0  0  0  0  3  0  0  0  0  0  0
  -22.5100   15.2370  -30.2530 C   0  0  0  0  0  0  0  0  0  0  0  0
  -21.2700   15.4010  -29.5900 C   0  0  0  0  0  0  0  0  0  0  0  0
  -20.7750   16.6970  -29.3720 C   0  0  0  0  0  3  0  0  0  0  0  0
  -21.4920   17.8150  -29.8000 C   0  0  0  0  0  0  0  0  0  0  0  0
  -22.7110   17.6530  -30.4530 C   0  0  0  0  0  3  0  0  0  0  0  0
  -20.5620   14.2660  -29.1650 C   0  0  0  0  0  3  0  0  0  0  0  0
  -23.2180   16.3720  -30.6780 C   0  0  0  0  0  3  0  0  0  0  0  0
  -21.0690   12.9850  -29.3910 C   0  0  0  0  0  3  0  0  0  0  0  0
  -19.9610   19.1980  -28.4630 N   0  0  0  0  0  0  0  0  0  0  0  0
  -19.1250   18.6570  -28.5590 H   0  0  0  0  0  0  0  0  0  0  0  0
  -20.1510   19.9270  -27.3200 C   0  0  0  0  0  0  0  0  0  0  0  0
  -21.1200   20.6360  -27.0600 O   0  0  0  0  0  0  0  0  0  0  0  0
  -18.9830   19.7460  -26.3850 C   0  0  0  0  0  2  0  0  0  0  0  0
  -18.4860   21.0600  -25.9540 N   0  0  0  0  0  0  0  0  0  0  0  0
  -19.3120   21.8440  -25.1830 N   0  0  0  0  0  0  0  0  0  0  0  0
  -20.2270   21.4700  -24.9510 H   0  0  0  0  0  0  0  0  0  0  0  0
  -18.9310   23.0830  -24.7350 C   0  0  0  0  0  0  0  0  0  0  0  0
  -19.6440   23.8080  -24.0440 O   0  0  0  0  0  0  0  0  0  0  0  0
  -17.5830   23.5340  -25.1270 C   0  0  0  0  0  3  0  0  0  0  0  0
  -16.7920   22.7650  -25.8760 C   0  0  0  0  0  3  0  0  0  0  0  0
  -17.2310   21.4330  -26.3440 C   0  0  0  0  0  0  0  0  0  0  0  0
  -16.4630   20.7610  -27.0330 O   0  0  0  0  0  0  0  0  0  0  0  0
  -20.3220   19.8440  -30.8100 C   0  0  0  0  0  2  0  0  0  0  0  0
  -21.2320   20.7650  -31.4400 N   0  0  0  0  0  0  0  0  0  0  0  0
  -21.6570   20.4960  -32.3250 H   0  0  0  0  0  0  0  0  0  0  0  0
  -21.5570   22.0020  -30.9000 C   0  0  0  0  0  0  0  0  0  0  0  0
  -21.1160   22.4480  -29.8430 O   0  0  0  0  0  0  0  0  0  0  0  0
  -22.5330   22.7860  -31.7560 C   0  0  0  0  0  2  0  0  0  0  0  0
  -23.7390   21.9530  -32.0130 C   0  0  0  0  0  0  0  0  0  0  0  0
  -24.1650   21.6250  -33.2410 C   0  0  0  0  0  3  0  0  0  0  0  0
  -25.2850   20.8530  -33.4240 N   0  0  0  0  0  0  0  0  0  0  0  0
  -25.5580   20.6400  -34.3790 H   0  0  0  0  0  0  0  0  0  0  0  0
  -26.0530   20.3580  -32.3820 C   0  0  0  0  0  0  0  0  0  0  0  0
  -27.0570   19.6660  -32.5330 O   0  0  0  0  0  0  0  0  0  0  0  0
  -25.5840   20.7180  -31.0130 C   0  0  0  0  0  3  0  0  0  0  0  0
  -24.4870   21.4740  -30.8670 C   0  0  0  0  0  3  0  0  0  0  0  0
  1 26  1  6  0  0  0
  1 12  1  0  0  0  0
  2 11  1  0  0  0  0
  3  4  1  0  0  0  0
  3  2  2  0  0  0  0
  4  5  1  0  0  0  0
  5  6  2  0  0  0  0
  5  9  1  0  0  0  0
  7  1  1  0  0  0  0
  7  6  1  0  0  0  0
  8  7  2  0  0  0  0
 10  8  1  0  0  0  0
 10  4  2  0  0  0  0
 11  9  2  0  0  0  0
 12 14  1  0  0  0  0
 13 12  1  0  0  0  0
 14 15  2  0  0  0  0
 14 16  1  0  0  0  0
 16 17  1  0  0  0  0
 17 18  1  0  0  0  0
 18 19  1  0  0  0  0
 18 20  1  0  0  0  0
 20 21  2  0  0  0  0
 22 20  1  0  0  0  0
 23 22  2  0  0  0  0
 24 17  1  0  0  0  0
 24 23  1  0  0  0  0
 25 24  2  0  0  0  0
 27 29  1  0  0  0  0
 27 26  1  0  0  0  0
 28 27  1  0  0  0  0
 29 30  2  0  0  0  0
 31 29  1  0  0  0  0
 32 31  1  0  0  0  0
 32 39  1  0  0  0  0
 33 32  2  0  0  0  0
 34 33  1  0  0  0  0
 34 36  1  0  0  0  0
 35 34  1  0  0  0  0
 36 38  1  0  0  0  0
 37 36  2  0  0  0  0
 38 39  2  0  0  0  0
M  END
>  <VSCORE>
 -8.7

>  <MODEL>
1

>  <TORSDO>
F 8

$$$$
58
 OpenBabel08042114533D

 38 41  0  0  1  0  0  0  0  0999 V2000
  -23.5450   14.8960  -19.1070 C   0  0  0  0  0  3  0  0  0  0  0  0
  -23.4510   16.2290  -19.5100 C   0  0  0  0  0  3  0  0  0  0  0  0
  -22.5720   16.5450  -20.5320 C   0  0  0  0  0  0  0  0  0  0  0  0
  -22.3280   17.8870  -21.1520 C   0  0  0  0  0  2  0  0  0  0  0  0
  -20.9890   17.6370  -21.8720 C   0  0  1  0  0  3  0  0  0  0  0  0
  -20.9660   16.1370  -22.2590 C   0  0  1  0  0  3  0  0  0  0  0  0
  -21.8070   15.5540  -21.1610 C   0  0  0  0  0  0  0  0  0  0  0  0
  -21.9010   14.2280  -20.7710 C   0  0  0  0  0  3  0  0  0  0  0  0
  -22.7750   13.9020  -19.7320 C   0  0  0  0  0  3  0  0  0  0  0  0
  -20.7800   18.5390  -22.9700 N   0  0  0  0  0  0  0  0  0  0  0  0
  -21.1270   18.2640  -23.8880 H   0  0  0  0  0  0  0  0  0  0  0  0
  -20.1650   19.7730  -22.8120 C   0  0  0  0  0  0  0  0  0  0  0  0
  -19.7430   20.2220  -21.7520 O   0  0  0  0  0  0  0  0  0  0  0  0
  -20.0710   20.5220  -24.0960 C   0  0  0  0  0  3  0  0  0  0  0  0
  -19.4300   19.9830  -25.1410 C   0  0  0  0  0  3  0  0  0  0  0  0
  -19.3010   20.6490  -26.4070 C   0  0  0  0  0  0  0  0  0  0  0  0
  -17.9880   21.2150  -26.8160 C   0  0  0  0  0  0  0  0  0  0  0  0
  -16.9860   21.1390  -26.1120 O   0  0  0  0  0  0  0  0  0  0  0  0
  -18.0140   21.8260  -28.0560 N   0  0  0  0  0  0  0  0  0  0  0  0
  -17.1580   22.2390  -28.4130 H   0  0  0  0  0  0  0  0  0  0  0  0
  -19.1590   21.8910  -28.8170 C   0  0  0  0  0  3  0  0  0  0  0  0
  -20.3050   21.4030  -28.4720 N   0  0  0  0  0  0  0  0  0  0  0  0
  -20.3390   20.7820  -27.2470 C   0  0  0  0  0  3  0  0  0  0  0  0
  -21.5310   15.8620  -23.5530 N   0  0  0  0  0  0  0  0  0  0  0  0
  -22.2730   16.4710  -23.8950 H   0  0  0  0  0  0  0  0  0  0  0  0
  -21.1190   14.8090  -24.3630 C   0  0  0  0  0  0  0  0  0  0  0  0
  -20.2380   14.0020  -24.0740 O   0  0  0  0  0  0  0  0  0  0  0  0
  -21.8910   14.7680  -25.6560 C   0  0  0  0  0  2  0  0  0  0  0  0
  -20.9680   14.9470  -26.7870 N   0  0  0  0  0  0  0  0  0  0  0  0
  -20.5550   16.2290  -27.1550 C   0  0  0  0  0  0  0  0  0  0  0  0
  -20.9080   17.2680  -26.5950 O   0  0  0  0  0  0  0  0  0  0  0  0
  -19.6080   16.3030  -28.3290 C   0  0  0  0  0  0  0  0  0  0  0  0
  -19.2370   15.1580  -28.9230 C   0  0  0  0  0  3  0  0  0  0  0  0
  -19.7120   13.8780  -28.4770 C   0  0  0  0  0  3  0  0  0  0  0  0
  -20.5500   13.8080  -27.4410 C   0  0  0  0  0  3  0  0  0  0  0  0
  -19.1950   17.5490  -28.7000 N   0  0  0  0  0  0  0  0  0  0  0  0
  -18.9440   17.7050  -29.6530 H   0  0  0  0  0  0  0  0  0  0  0  0
  -19.1580   18.2660  -28.0090 H   0  0  0  0  0  0  0  0  0  0  0  0
  2  1  1  0  0  0  0
  3  2  2  0  0  0  0
  4  3  1  0  0  0  0
  5 10  1  6  0  0  0
  5  4  1  0  0  0  0
  6 24  1  6  0  0  0
  6  5  1  0  0  0  0
  6  7  1  0  0  0  0
  7  8  2  0  0  0  0
  7  3  1  0  0  0  0
  8  9  1  0  0  0  0
  9  1  2  0  0  0  0
 10 12  1  0  0  0  0
 11 10  1  0  0  0  0
 12 13  2  0  0  0  0
 14 12  1  0  0  0  0
 15 14  2  0  0  0  0
 16 15  1  0  0  0  0
 17 16  1  0  0  0  0
 17 18  2  0  0  0  0
 19 17  1  0  0  0  0
 20 19  1  0  0  0  0
 21 22  2  0  0  0  0
 21 19  1  0  0  0  0
 22 23  1  0  0  0  0
 23 16  2  0  0  0  0
 25 24  1  0  0  0  0
 26 27  2  0  0  0  0
 26 24  1  0  0  0  0
 28 26  1  0  0  0  0
 29 28  1  0  0  0  0
 30 29  1  0  0  0  0
 30 31  2  0  0  0  0
 32 30  1  0  0  0  0
 33 34  1  0  0  0  0
 33 32  2  0  0  0  0
 34 35  2  0  0  0  0
 35 29  1  0  0  0  0
 36 32  1  0  0  0  0
 36 38  1  0  0  0  0
 37 36  1  0  0  0  0
M  END
>  <VSCORE>
 -8.2

>  <MODEL>
1

>  <TORSDO>
F 7

$$$$
59
 OpenBabel08042114533D

 40 44  0  0  1  0  0  0  0  0999 V2000
  -20.4260   18.8950  -29.7010 C   0  0  1  0  0  3  0  0  0  0  0  0
  -22.1590   12.6130  -29.6150 C   0  0  0  0  0  3  0  0  0  0  0  0
  -21.0260   13.2530  -29.1130 C   0  0  0  0  0  3  0  0  0  0  0  0
  -20.8670   14.6410  -29.2520 C   0  0  0  0  0  0  0  0  0  0  0  0
  -21.8720   15.3900  -29.9080 C   0  0  0  0  0  0  0  0  0  0  0  0
  -21.7130   16.7800  -30.0460 C   0  0  0  0  0  3  0  0  0  0  0  0
  -20.5790   17.4200  -29.5450 C   0  0  0  0  0  0  0  0  0  0  0  0
  -19.5900   16.6820  -28.9000 C   0  0  0  0  0  3  0  0  0  0  0  0
  -23.0060   14.7300  -30.4060 C   0  0  0  0  0  3  0  0  0  0  0  0
  -19.7320   15.3020  -28.7540 C   0  0  0  0  0  3  0  0  0  0  0  0
  -23.1480   13.3490  -30.2590 C   0  0  0  0  0  3  0  0  0  0  0  0
  -21.0430   19.3810  -30.9530 N   0  0  0  0  0  0  0  0  0  0  0  0
  -21.7800   18.8460  -31.3690 H   0  0  0  0  0  0  0  0  0  0  0  0
  -20.6390   20.5390  -31.5630 C   0  0  0  0  0  0  0  0  0  0  0  0
  -19.7540   21.2970  -31.1730 O   0  0  0  0  0  0  0  0  0  0  0  0
  -21.4420   20.7770  -32.8160 C   0  0  0  0  0  2  0  0  0  0  0  0
  -22.2810   21.9720  -32.6460 N   0  0  0  0  0  0  0  0  0  0  0  0
  -21.7420   23.1930  -32.9800 N   0  0  0  0  0  0  0  0  0  0  0  0
  -20.7880   23.2040  -33.3270 H   0  0  0  0  0  0  0  0  0  0  0  0
  -22.4520   24.3600  -32.8550 C   0  0  0  0  0  0  0  0  0  0  0  0
  -22.0020   25.4670  -33.1450 O   0  0  0  0  0  0  0  0  0  0  0  0
  -23.8290   24.2370  -32.3410 C   0  0  0  0  0  3  0  0  0  0  0  0
  -24.3380   23.0470  -32.0190 C   0  0  0  0  0  3  0  0  0  0  0  0
  -23.5480   21.8060  -32.1650 C   0  0  0  0  0  0  0  0  0  0  0  0
  -24.0640   20.7320  -31.8550 O   0  0  0  0  0  0  0  0  0  0  0  0
  -20.9870   19.7180  -28.5160 C   0  0  0  0  0  2  0  0  0  0  0  0
  -19.9910   20.6000  -27.9640 N   0  0  0  0  0  0  0  0  0  0  0  0
  -19.9640   21.5540  -28.3170 H   0  0  0  0  0  0  0  0  0  0  0  0
  -19.1430   20.2190  -26.9320 C   0  0  0  0  0  0  0  0  0  0  0  0
  -19.1510   19.1160  -26.3920 O   0  0  0  0  0  0  0  0  0  0  0  0
  -18.1880   21.2530  -26.4570 C   0  0  0  0  0  0  0  0  0  0  0  0
  -18.5480   22.2340  -25.5230 C   0  0  0  0  0  0  0  0  0  0  0  0
  -17.5870   23.1670  -25.1290 C   0  0  0  0  0  0  0  0  0  0  0  0
  -18.1840   24.0090  -24.2190 N   0  0  0  0  0  0  0  0  0  0  0  0
  -17.7260   24.7850  -23.7620 H   0  0  0  0  0  0  0  0  0  0  0  0
  -19.4890   23.6400  -24.0250 C   0  0  0  0  0  3  0  0  0  0  0  0
  -16.2930   23.1500  -25.6330 C   0  0  0  0  0  3  0  0  0  0  0  0
  -15.9480   22.2010  -26.5340 N   0  0  0  0  0  0  0  0  0  0  0  0
  -19.7440   22.5460  -24.8180 C   0  0  0  0  0  3  0  0  0  0  0  0
  -16.8780   21.2960  -26.9170 C   0  0  0  0  0  3  0  0  0  0  0  0
  1  7  1  0  0  0  0
  1 26  1  1  0  0  0
  2  3  1  0  0  0  0
  4  3  2  0  0  0  0
  4 10  1  0  0  0  0
  5  4  1  0  0  0  0
  6  5  1  0  0  0  0
  6  7  2  0  0  0  0
  7  8  1  0  0  0  0
  8 10  2  0  0  0  0
  9 11  1  0  0  0  0
  9  5  2  0  0  0  0
 11  2  2  0  0  0  0
 12  1  1  0  0  0  0
 13 12  1  0  0  0  0
 14 15  2  0  0  0  0
 14 12  1  0  0  0  0
 16 17  1  0  0  0  0
 16 14  1  0  0  0  0
 17 24  1  0  0  0  0
 18 20  1  0  0  0  0
 18 17  1  0  0  0  0
 19 18  1  0  0  0  0
 20 22  1  0  0  0  0
 21 20  2  0  0  0  0
 22 23  2  0  0  0  0
 24 23  1  0  0  0  0
 24 25  2  0  0  0  0
 26 27  1  0  0  0  0
 27 29  1  0  0  0  0
 28 27  1  0  0  0  0
 29 31  1  0  0  0  0
 29 30  2  0  0  0  0
 31 32  1  0  0  0  0
 32 33  2  0  0  0  0
 32 39  1  0  0  0  0
 33 34  1  0  0  0  0
 34 36  1  0  0  0  0
 34 35  1  0  0  0  0
 37 33  1  0  0  0  0
 38 37  2  0  0  0  0
 39 36  2  0  0  0  0
 40 38  1  0  0  0  0
 40 31  2  0  0  0  0
M  END
>  <VSCORE>
 -9.6

>  <MODEL>
1

>  <TORSDO>
F 7

$$$$
5
 OpenBabel08042114533D

 37 39  0  0  1  0  0  0  0  0999 V2000
  -20.5560   18.7340  -29.5030 C   0  0  1  0  0  3  0  0  0  0  0  0
  -22.1830   12.4260  -29.7120 C   0  0  0  0  0  3  0  0  0  0  0  0
  -21.0310   13.0550  -29.2390 C   0  0  0  0  0  3  0  0  0  0  0  0
  -20.9020   14.4530  -29.2990 C   0  0  0  0  0  0  0  0  0  0  0  0
  -21.9570   15.2220  -29.8460 C   0  0  0  0  0  0  0  0  0  0  0  0
  -21.8280   16.6190  -29.9050 C   0  0  0  0  0  3  0  0  0  0  0  0
  -20.6760   17.2490  -29.4330 C   0  0  0  0  0  0  0  0  0  0  0  0
  -19.6390   16.4930  -28.8950 C   0  0  0  0  0  3  0  0  0  0  0  0
  -23.1090   14.5720  -30.3170 C   0  0  0  0  0  3  0  0  0  0  0  0
  -19.7500   15.1030  -28.8280 C   0  0  0  0  0  3  0  0  0  0  0  0
  -23.2200   13.1830  -30.2490 C   0  0  0  0  0  3  0  0  0  0  0  0
  -21.4690   19.3100  -30.5120 N   0  0  0  0  0  0  0  0  0  0  0  0
  -22.4470   19.1960  -30.3340 H   0  0  0  0  0  0  0  0  0  0  0  0
  -20.9820   19.9910  -31.5930 C   0  0  0  0  0  0  0  0  0  0  0  0
  -19.8030   20.2010  -31.8560 O   0  0  0  0  0  0  0  0  0  0  0  0
  -22.0960   20.4750  -32.4550 C   0  0  0  0  0  3  0  0  0  0  0  0
  -23.2860   20.7630  -31.9140 C   0  0  0  0  0  3  0  0  0  0  0  0
  -24.4040   21.2330  -32.6860 C   0  0  0  0  0  0  0  0  0  0  0  0
  -25.5260   20.3120  -33.0020 C   0  0  0  0  0  0  0  0  0  0  0  0
  -25.5490   19.1440  -32.6290 O   0  0  0  0  0  0  0  0  0  0  0  0
  -26.5280   20.9020  -33.7500 N   0  0  0  0  0  0  0  0  0  0  0  0
  -27.3350   20.3420  -34.0110 H   0  0  0  0  0  0  0  0  0  0  0  0
  -26.4660   22.2170  -34.1490 C   0  0  0  0  0  3  0  0  0  0  0  0
  -25.4960   23.0270  -33.8810 N   0  0  0  0  0  0  0  0  0  0  0  0
  -24.4700   22.4950  -33.1380 C   0  0  0  0  0  3  0  0  0  0  0  0
  -20.7870   19.4520  -28.1520 C   0  0  0  0  0  2  0  0  0  0  0  0
  -19.6700   20.2890  -27.7970 N   0  0  0  0  0  0  0  0  0  0  0  0
  -18.9790   19.9270  -27.1420 H   0  0  0  0  0  0  0  0  0  0  0  0
  -19.4940   21.5670  -28.3080 C   0  0  0  0  0  0  0  0  0  0  0  0
  -20.2460   22.1250  -29.1000 O   0  0  0  0  0  0  0  0  0  0  0  0
  -18.2630   22.2170  -27.7770 C   0  0  0  0  0  3  0  0  0  0  0  0
  -17.9330   22.0640  -26.4890 C   0  0  0  0  0  3  0  0  0  0  0  0
  -16.7060   22.7150  -25.9600 C   0  0  0  0  0  0  0  0  0  0  0  0
  -15.5710   22.3870  -26.2940 O   0  0  0  0  0  0  0  0  0  0  0  0
  -16.9890   23.7190  -25.0630 N   0  0  0  0  0  0  0  0  0  0  0  0
  -16.2690   24.2690  -24.6040 H   0  0  0  0  0  0  0  0  0  0  0  0
  -17.9610   23.9180  -24.8490 H   0  0  0  0  0  0  0  0  0  0  0  0
  1  7  1  0  0  0  0
  1 26  1  1  0  0  0
  2  3  1  0  0  0  0
  4  3  2  0  0  0  0
  4 10  1  0  0  0  0
  5  4  1  0  0  0  0
  6  5  1  0  0  0  0
  6  7  2  0  0  0  0
  7  8  1  0  0  0  0
  8 10  2  0  0  0  0
  9 11  1  0  0  0  0
  9  5  2  0  0  0  0
 11  2  2  0  0  0  0
 12 13  1  0  0  0  0
 12  1  1  0  0  0  0
 14 12  1  0  0  0  0
 15 14  2  0  0  0  0
 16 17  2  0  0  0  0
 16 14  1  0  0  0  0
 18 17  1  0  0  0  0
 19 18  1  0  0  0  0
 19 20  2  0  0  0  0
 21 19  1  0  0  0  0
 22 21  1  0  0  0  0
 23 24  2  0  0  0  0
 23 21  1  0  0  0  0
 24 25  1  0  0  0  0
 25 18  2  0  0  0  0
 26 27  1  0  0  0  0
 27 28  1  0  0  0  0
 29 27  1  0  0  0  0
 29 31  1  0  0  0  0
 30 29  2  0  0  0  0
 31 32  2  0  0  0  0
 32 33  1  0  0  0  0
 33 35  1  0  0  0  0
 34 33  2  0  0  0  0
 35 37  1  0  0  0  0
 35 36  1  0  0  0  0
M  END
>  <VSCORE>
 -9.1

>  <MODEL>
1

>  <TORSDO>
F 8

$$$$
60
 OpenBabel08042114533D

 39 42  0  0  1  0  0  0  0  0999 V2000
  -18.2630   23.2350  -25.1200 C   0  0  0  0  0  3  0  0  0  0  0  0
  -17.7950   22.3680  -26.1090 C   0  0  0  0  0  3  0  0  0  0  0  0
  -18.4570   21.1660  -26.2960 C   0  0  0  0  0  0  0  0  0  0  0  0
  -18.1150   20.0760  -27.2640 C   0  0  0  0  0  2  0  0  0  0  0  0
  -19.4360   19.2880  -27.2880 C   0  0  2  0  0  3  0  0  0  0  0  0
  -20.0590   19.4410  -25.8790 C   0  0  1  0  0  3  0  0  0  0  0  0
  -19.5620   20.8130  -25.5090 C   0  0  0  0  0  0  0  0  0  0  0  0
  -20.0230   21.6660  -24.5160 C   0  0  0  0  0  3  0  0  0  0  0  0
  -19.3690   22.8870  -24.3300 C   0  0  0  0  0  3  0  0  0  0  0  0
  -19.2520   17.9140  -27.6680 N   0  0  0  0  0  0  0  0  0  0  0  0
  -18.6470   17.3310  -27.0910 H   0  0  0  0  0  0  0  0  0  0  0  0
  -19.8560   17.3370  -28.7810 C   0  0  0  0  0  0  0  0  0  0  0  0
  -20.6050   17.9230  -29.5570 O   0  0  0  0  0  0  0  0  0  0  0  0
  -19.4770   15.8850  -28.9300 C   0  0  0  0  0  2  0  0  0  0  0  0
  -20.6770   15.0900  -29.2270 N   0  0  0  0  0  0  0  0  0  0  0  0
  -21.5540   15.5710  -30.1720 N   0  0  0  0  0  0  0  0  0  0  0  0
  -21.3240   16.4550  -30.6150 H   0  0  0  0  0  0  0  0  0  0  0  0
  -22.6970   14.8960  -30.5140 C   0  0  0  0  0  0  0  0  0  0  0  0
  -23.5010   15.2950  -31.3530 O   0  0  0  0  0  0  0  0  0  0  0  0
  -22.9390   13.6220  -29.8110 C   0  0  0  0  0  3  0  0  0  0  0  0
  -22.0810   13.1690  -28.8960 C   0  0  0  0  0  3  0  0  0  0  0  0
  -20.8560   13.9190  -28.5490 C   0  0  0  0  0  0  0  0  0  0  0  0
  -20.0960   13.4580  -27.6980 O   0  0  0  0  0  0  0  0  0  0  0  0
  -21.5740   19.2880  -25.8910 C   0  0  0  0  0  2  0  0  0  0  0  0
  -21.9720   18.3100  -24.9330 N   0  0  0  0  0  0  0  0  0  0  0  0
  -22.2430   18.6240  -23.9960 H   0  0  0  0  0  0  0  0  0  0  0  0
  -22.0450   16.9490  -25.2290 C   0  0  0  0  0  0  0  0  0  0  0  0
  -21.7810   16.4550  -26.3210 O   0  0  0  0  0  0  0  0  0  0  0  0
  -22.4900   16.1350  -24.0650 C   0  0  0  0  0  3  0  0  0  0  0  0
  -21.8260   16.2050  -22.9030 C   0  0  0  0  0  3  0  0  0  0  0  0
  -22.2000   15.4470  -21.7420 C   0  0  0  0  0  0  0  0  0  0  0  0
  -21.6400   14.0880  -21.5330 C   0  0  0  0  0  0  0  0  0  0  0  0
  -20.8550   13.5670  -22.3190 O   0  0  0  0  0  0  0  0  0  0  0  0
  -22.0870   13.4780  -20.3750 N   0  0  0  0  0  0  0  0  0  0  0  0
  -21.7450   12.5440  -20.1680 H   0  0  0  0  0  0  0  0  0  0  0  0
  -22.9720   14.0890  -19.5090 C   0  0  0  0  0  0  0  0  0  0  0  0
  -23.4620   15.2750  -19.6900 N   0  0  0  0  0  0  0  0  0  0  0  0
  -23.3560   13.2870  -18.3000 C   0  0  0  0  0  1  0  0  0  0  0  0
  -23.0500   15.9290  -20.8260 C   0  0  0  0  0  3  0  0  0  0  0  0
  1  9  1  0  0  0  0
  2  1  2  0  0  0  0
  3  2  1  0  0  0  0
  3  7  2  0  0  0  0
  4  3  1  0  0  0  0
  5 10  1  1  0  0  0
  5  4  1  0  0  0  0
  5  6  1  0  0  0  0
  6 24  1  6  0  0  0
  6  7  1  0  0  0  0
  7  8  1  0  0  0  0
  8  9  2  0  0  0  0
 10 11  1  0  0  0  0
 12 10  1  0  0  0  0
 13 12  2  0  0  0  0
 14 12  1  0  0  0  0
 15 14  1  0  0  0  0
 15 22  1  0  0  0  0
 16 15  1  0  0  0  0
 17 16  1  0  0  0  0
 18 16  1  0  0  0  0
 18 20  1  0  0  0  0
 19 18  2  0  0  0  0
 20 21  2  0  0  0  0
 21 22  1  0  0  0  0
 22 23  2  0  0  0  0
 24 25  1  0  0  0  0
 25 26  1  0  0  0  0
 27 25  1  0  0  0  0
 27 29  1  0  0  0  0
 28 27  2  0  0  0  0
 29 30  2  0  0  0  0
 30 31  1  0  0  0  0
 31 32  1  0  0  0  0
 31 39  2  0  0  0  0
 32 34  1  0  0  0  0
 33 32  2  0  0  0  0
 34 35  1  0  0  0  0
 34 36  1  0  0  0  0
 36 38  1  0  0  0  0
 37 36  2  0  0  0  0
 39 37  1  0  0  0  0
M  END
>  <VSCORE>
 -9.2

>  <MODEL>
1

>  <TORSDO>
F 7

$$$$
61
 OpenBabel08042114533D

 40 43  0  0  1  0  0  0  0  0999 V2000
  -20.2870   18.8820  -29.3200 C   0  0  1  0  0  3  0  0  0  0  0  0
  -22.0630   12.6250  -29.7340 C   0  0  0  0  0  3  0  0  0  0  0  0
  -20.8740   13.2080  -29.2990 C   0  0  0  0  0  3  0  0  0  0  0  0
  -20.7170   14.6030  -29.3000 C   0  0  0  0  0  0  0  0  0  0  0  0
  -21.7830   15.4180  -29.7470 C   0  0  0  0  0  0  0  0  0  0  0  0
  -21.6270   16.8150  -29.7470 C   0  0  0  0  0  3  0  0  0  0  0  0
  -20.4360   17.3980  -29.3130 C   0  0  0  0  0  0  0  0  0  0  0  0
  -19.3870   16.5950  -28.8730 C   0  0  0  0  0  3  0  0  0  0  0  0
  -22.9740   14.8150  -30.1810 C   0  0  0  0  0  3  0  0  0  0  0  0
  -19.5260   15.2070  -28.8660 C   0  0  0  0  0  3  0  0  0  0  0  0
  -23.1120   13.4260  -30.1740 C   0  0  0  0  0  3  0  0  0  0  0  0
  -20.8820   19.4870  -30.5300 N   0  0  0  0  0  0  0  0  0  0  0  0
  -21.5240   18.9470  -31.0760 H   0  0  0  0  0  0  0  0  0  0  0  0
  -20.5810   20.7620  -30.9300 C   0  0  0  0  0  0  0  0  0  0  0  0
  -19.8170   21.5410  -30.3660 O   0  0  0  0  0  0  0  0  0  0  0  0
  -21.3310   21.1040  -32.1920 C   0  0  0  0  0  2  0  0  0  0  0  0
  -22.4370   22.0190  -31.8780 N   0  0  0  0  0  0  0  0  0  0  0  0
  -22.6510   22.3470  -30.5580 N   0  0  0  0  0  0  0  0  0  0  0  0
  -22.0290   21.9360  -29.8690 H   0  0  0  0  0  0  0  0  0  0  0  0
  -23.6580   23.1940  -30.1730 C   0  0  0  0  0  0  0  0  0  0  0  0
  -23.8750   23.5090  -29.0050 O   0  0  0  0  0  0  0  0  0  0  0  0
  -24.5050   23.7370  -31.2520 C   0  0  0  0  0  3  0  0  0  0  0  0
  -24.2880   23.4100  -32.5250 C   0  0  0  0  0  3  0  0  0  0  0  0
  -23.1940   22.4940  -32.9110 C   0  0  0  0  0  0  0  0  0  0  0  0
  -23.0340   22.2240  -34.1010 O   0  0  0  0  0  0  0  0  0  0  0  0
  -20.8750   19.5830  -28.0710 C   0  0  0  0  0  2  0  0  0  0  0  0
  -20.7930   18.7430  -26.9040 N   0  0  0  0  0  0  0  0  0  0  0  0
  -21.5650   18.1050  -26.7220 H   0  0  0  0  0  0  0  0  0  0  0  0
  -19.6930   18.7530  -26.0600 C   0  0  0  0  0  0  0  0  0  0  0  0
  -18.6960   19.4530  -26.2030 O   0  0  0  0  0  0  0  0  0  0  0  0
  -19.8470   17.7960  -24.9290 C   0  0  0  0  0  3  0  0  0  0  0  0
  -20.4220   16.6040  -25.1350 C   0  0  0  0  0  3  0  0  0  0  0  0
  -20.6040   15.6330  -24.0910 C   0  0  0  0  0  0  0  0  0  0  0  0
  -21.8830   15.5890  -23.3370 C   0  0  0  0  0  0  0  0  0  0  0  0
  -22.8140   16.3560  -23.5640 O   0  0  0  0  0  0  0  0  0  0  0  0
  -21.9150   14.6070  -22.3640 N   0  0  0  0  0  0  0  0  0  0  0  0
  -22.7530   14.5050  -21.8000 H   0  0  0  0  0  0  0  0  0  0  0  0
  -20.8500   13.7640  -22.1380 C   0  0  0  0  0  3  0  0  0  0  0  0
  -19.7330   13.7940  -22.7880 N   0  0  0  0  0  0  0  0  0  0  0  0
  -19.6450   14.7520  -23.7690 C   0  0  0  0  0  3  0  0  0  0  0  0
  1  7  1  0  0  0  0
  1 26  1  1  0  0  0
  2  3  1  0  0  0  0
  4  3  2  0  0  0  0
  4 10  1  0  0  0  0
  5  4  1  0  0  0  0
  6  5  1  0  0  0  0
  6  7  2  0  0  0  0
  7  8  1  0  0  0  0
  8 10  2  0  0  0  0
  9 11  1  0  0  0  0
  9  5  2  0  0  0  0
 11  2  2  0  0  0  0
 12  1  1  0  0  0  0
 13 12  1  0  0  0  0
 14 12  1  0  0  0  0
 14 15  2  0  0  0  0
 16 17  1  0  0  0  0
 16 14  1  0  0  0  0
 17 18  1  0  0  0  0
 18 20  1  0  0  0  0
 18 19  1  0  0  0  0
 20 21  2  0  0  0  0
 22 20  1  0  0  0  0
 23 22  2  0  0  0  0
 24 23  1  0  0  0  0
 24 17  1  0  0  0  0
 25 24  2  0  0  0  0
 26 27  1  0  0  0  0
 27 28  1  0  0  0  0
 27 29  1  0  0  0  0
 29 31  1  0  0  0  0
 30 29  2  0  0  0  0
 32 31  2  0  0  0  0
 32 33  1  0  0  0  0
 33 40  2  0  0  0  0
 33 34  1  0  0  0  0
 34 36  1  0  0  0  0
 35 34  2  0  0  0  0
 36 38  1  0  0  0  0
 36 37  1  0  0  0  0
 39 38  2  0  0  0  0
 40 39  1  0  0  0  0
M  END
>  <VSCORE>
 -9.1

>  <MODEL>
1

>  <TORSDO>
F 8

$$$$
62
 OpenBabel08042114533D

 40 43  0  0  1  0  0  0  0  0999 V2000
  -20.1550   18.8350  -29.7460 C   0  0  1  0  0  3  0  0  0  0  0  0
  -22.1320   12.6390  -29.3300 C   0  0  0  0  0  3  0  0  0  0  0  0
  -20.9650   13.2560  -28.8800 C   0  0  0  0  0  3  0  0  0  0  0  0
  -20.7540   14.6280  -29.0870 C   0  0  0  0  0  0  0  0  0  0  0  0
  -21.7410   15.3860  -29.7610 C   0  0  0  0  0  0  0  0  0  0  0  0
  -21.5300   16.7590  -29.9690 C   0  0  0  0  0  3  0  0  0  0  0  0
  -20.3630   17.3760  -29.5190 C   0  0  0  0  0  0  0  0  0  0  0  0
  -19.3920   16.6310  -28.8560 C   0  0  0  0  0  3  0  0  0  0  0  0
  -22.9100   14.7490  -30.2080 C   0  0  0  0  0  3  0  0  0  0  0  0
  -19.5850   15.2660  -28.6400 C   0  0  0  0  0  3  0  0  0  0  0  0
  -23.1030   13.3840  -29.9930 C   0  0  0  0  0  3  0  0  0  0  0  0
  -21.2770   19.4370  -30.4970 N   0  0  0  0  0  0  0  0  0  0  0  0
  -22.2060   19.3610  -30.1310 H   0  0  0  0  0  0  0  0  0  0  0  0
  -21.0780   20.0940  -31.6750 C   0  0  0  0  0  0  0  0  0  0  0  0
  -20.0190   20.2800  -32.2630 O   0  0  0  0  0  0  0  0  0  0  0  0
  -22.3460   20.6010  -32.2310 C   0  0  0  0  0  0  0  0  0  0  0  0
  -22.2990   21.6560  -33.1010 N   0  0  0  0  0  0  0  0  0  0  0  0
  -21.3930   22.0510  -33.3320 H   0  0  0  0  0  0  0  0  0  0  0  0
  -23.4330   22.2080  -33.6810 C   0  0  0  0  0  0  0  0  0  0  0  0
  -23.3890   23.1580  -34.4650 O   0  0  0  0  0  0  0  0  0  0  0  0
  -24.6310   21.5970  -33.3010 N   0  0  0  0  0  0  0  0  0  0  0  0
  -25.4850   21.9710  -33.7050 H   0  0  0  0  0  0  0  0  0  0  0  0
  -24.7650   20.5270  -32.4270 C   0  0  0  0  0  0  0  0  0  0  0  0
  -25.8370   20.0160  -32.1160 O   0  0  0  0  0  0  0  0  0  0  0  0
  -23.4900   20.0140  -31.8660 C   0  0  0  0  0  3  0  0  0  0  0  0
  -19.9250   19.6520  -28.4520 C   0  0  0  0  0  2  0  0  0  0  0  0
  -20.6870   19.1300  -27.3500 N   0  0  0  0  0  0  0  0  0  0  0  0
  -21.6510   18.8490  -27.5200 H   0  0  0  0  0  0  0  0  0  0  0  0
  -20.1780   18.9880  -26.0630 C   0  0  0  0  0  0  0  0  0  0  0  0
  -19.0370   19.2850  -25.7210 O   0  0  0  0  0  0  0  0  0  0  0  0
  -21.2060   18.4180  -25.1200 C   0  0  0  0  0  2  0  0  0  0  0  0
  -21.0000   16.9690  -24.9820 N   0  0  0  0  0  0  0  0  0  0  0  0
  -20.0500   16.5310  -24.0890 N   0  0  0  0  0  0  0  0  0  0  0  0
  -19.5380   17.2370  -23.5700 H   0  0  0  0  0  0  0  0  0  0  0  0
  -19.7940   15.1990  -23.8940 C   0  0  0  0  0  0  0  0  0  0  0  0
  -18.9530   14.7740  -23.1040 O   0  0  0  0  0  0  0  0  0  0  0  0
  -20.5920   14.2540  -24.6990 C   0  0  0  0  0  3  0  0  0  0  0  0
  -21.5090   14.6930  -25.5620 C   0  0  0  0  0  3  0  0  0  0  0  0
  -21.7650   16.1360  -25.7490 C   0  0  0  0  0  0  0  0  0  0  0  0
  -22.6220   16.4880  -26.5570 O   0  0  0  0  0  0  0  0  0  0  0  0
  1  7  1  0  0  0  0
  1 26  1  1  0  0  0
  2  3  1  0  0  0  0
  4  3  2  0  0  0  0
  4 10  1  0  0  0  0
  5  4  1  0  0  0  0
  6  5  1  0  0  0  0
  6  7  2  0  0  0  0
  7  8  1  0  0  0  0
  8 10  2  0  0  0  0
  9 11  1  0  0  0  0
  9  5  2  0  0  0  0
 11  2  2  0  0  0  0
 12 13  1  0  0  0  0
 12  1  1  0  0  0  0
 14 12  1  0  0  0  0
 15 14  2  0  0  0  0
 16 25  2  0  0  0  0
 16 14  1  0  0  0  0
 17 16  1  0  0  0  0
 18 17  1  0  0  0  0
 19 21  1  0  0  0  0
 19 17  1  0  0  0  0
 20 19  2  0  0  0  0
 21 23  1  0  0  0  0
 22 21  1  0  0  0  0
 23 24  2  0  0  0  0
 23 25  1  0  0  0  0
 26 27  1  0  0  0  0
 27 29  1  0  0  0  0
 28 27  1  0  0  0  0
 29 30  2  0  0  0  0
 29 31  1  0  0  0  0
 31 32  1  0  0  0  0
 32 33  1  0  0  0  0
 33 35  1  0  0  0  0
 33 34  1  0  0  0  0
 35 36  2  0  0  0  0
 37 35  1  0  0  0  0
 38 37  2  0  0  0  0
 39 38  1  0  0  0  0
 39 32  1  0  0  0  0
 40 39  2  0  0  0  0
M  END
>  <VSCORE>
 -9.0

>  <MODEL>
1

>  <TORSDO>
F 7

$$$$
63
 OpenBabel08042114533D

 36 39  0  0  1  0  0  0  0  0999 V2000
  -23.2770   15.0120  -30.7650 C   0  0  0  0  0  3  0  0  0  0  0  0
  -22.8720   14.0520  -29.8360 C   0  0  0  0  0  3  0  0  0  0  0  0
  -21.8520   14.3770  -28.9560 C   0  0  0  0  0  0  0  0  0  0  0  0
  -21.2320   13.4980  -27.9150 C   0  0  0  0  0  2  0  0  0  0  0  0
  -20.4870   14.5250  -27.0390 C   0  0  1  0  0  3  0  0  0  0  0  0
  -20.1280   15.7070  -27.9770 C   0  0  1  0  0  3  0  0  0  0  0  0
  -21.2310   15.6320  -28.9950 C   0  0  0  0  0  0  0  0  0  0  0  0
  -21.6180   16.5830  -29.9270 C   0  0  0  0  0  3  0  0  0  0  0  0
  -22.6540   16.2690  -30.8110 C   0  0  0  0  0  3  0  0  0  0  0  0
  -21.3160   14.9300  -25.9210 N   0  0  0  0  0  0  0  0  0  0  0  0
  -22.3240   14.9790  -26.0590 H   0  0  0  0  0  0  0  0  0  0  0  0
  -20.8040   15.2530  -24.6690 C   0  0  0  0  0  0  0  0  0  0  0  0
  -19.6110   15.2340  -24.3720 O   0  0  0  0  0  0  0  0  0  0  0  0
  -21.8760   15.6470  -23.6720 C   0  0  0  0  0  2  0  0  0  0  0  0
  -21.8030   17.1140  -23.4300 C   0  0  0  0  0  0  0  0  0  0  0  0
  -22.1320   18.1190  -24.4760 C   0  0  0  0  0  0  0  0  0  0  0  0
  -21.9480   19.3730  -23.9440 O   0  0  0  0  0  0  0  0  0  0  0  0
  -21.5540   19.1640  -22.6430 N   0  0  0  0  0  0  0  0  0  0  0  0
  -21.2360   19.9170  -22.0530 H   0  0  0  0  0  0  0  0  0  0  0  0
  -22.4980   17.8730  -25.6130 O   0  0  0  0  0  0  0  0  0  0  0  0
  -21.4570   17.8390  -22.3610 C   0  0  0  0  0  0  0  0  0  0  0  0
  -21.0040   17.3800  -21.0230 C   0  0  0  0  0  1  0  0  0  0  0  0
  -20.0300   16.9730  -27.3040 N   0  0  0  0  0  0  0  0  0  0  0  0
  -20.4510   17.0550  -26.3800 H   0  0  0  0  0  0  0  0  0  0  0  0
  -19.3550   18.0540  -27.8520 C   0  0  0  0  0  0  0  0  0  0  0  0
  -18.7820   18.0570  -28.9370 O   0  0  0  0  0  0  0  0  0  0  0  0
  -19.3920   19.2460  -26.9610 C   0  0  0  0  0  3  0  0  0  0  0  0
  -18.4480   20.1910  -27.0640 C   0  0  0  0  0  3  0  0  0  0  0  0
  -18.4230   21.3650  -26.2380 C   0  0  0  0  0  0  0  0  0  0  0  0
  -17.2230   22.2430  -26.2340 C   0  0  0  0  0  0  0  0  0  0  0  0
  -16.2310   22.0110  -26.9180 O   0  0  0  0  0  0  0  0  0  0  0  0
  -17.3410   23.3330  -25.3920 N   0  0  0  0  0  0  0  0  0  0  0  0
  -16.5650   23.9860  -25.3300 H   0  0  0  0  0  0  0  0  0  0  0  0
  -18.4700   23.5590  -24.6400 C   0  0  0  0  0  3  0  0  0  0  0  0
  -19.5190   22.8030  -24.6340 N   0  0  0  0  0  0  0  0  0  0  0  0
  -19.4580   21.7020  -25.4540 C   0  0  0  0  0  3  0  0  0  0  0  0
  1  2  1  0  0  0  0
  2  3  2  0  0  0  0
  3  4  1  0  0  0  0
  4  5  1  0  0  0  0
  5 10  1  1  0  0  0
  6 23  1  1  0  0  0
  6  5  1  0  0  0  0
  7  3  1  0  0  0  0
  7  6  1  0  0  0  0
  8  7  2  0  0  0  0
  9  1  2  0  0  0  0
  9  8  1  0  0  0  0
 10 12  1  0  0  0  0
 11 10  1  0  0  0  0
 12 13  2  0  0  0  0
 12 14  1  0  0  0  0
 14 15  1  0  0  0  0
 15 21  2  0  0  0  0
 16 17  1  0  0  0  0
 16 15  1  0  0  0  0
 17 18  1  0  0  0  0
 18 21  1  0  0  0  0
 18 19  1  0  0  0  0
 20 16  2  0  0  0  0
 21 22  1  0  0  0  0
 23 24  1  0  0  0  0
 25 23  1  0  0  0  0
 25 27  1  0  0  0  0
 26 25  2  0  0  0  0
 28 27  2  0  0  0  0
 28 29  1  0  0  0  0
 29 30  1  0  0  0  0
 29 36  2  0  0  0  0
 30 32  1  0  0  0  0
 31 30  2  0  0  0  0
 32 33  1  0  0  0  0
 32 34  1  0  0  0  0
 34 35  2  0  0  0  0
 36 35  1  0  0  0  0
M  END
>  <VSCORE>
 -8.3

>  <MODEL>
1

>  <TORSDO>
F 6

$$$$
64
 OpenBabel08042114533D

 38 41  0  0  1  0  0  0  0  0999 V2000
  -21.1520   14.1770  -20.6470 C   0  0  0  0  0  3  0  0  0  0  0  0
  -20.2450   13.9380  -21.6810 C   0  0  0  0  0  3  0  0  0  0  0  0
  -20.5460   14.4210  -22.9430 C   0  0  0  0  0  0  0  0  0  0  0  0
  -19.7170   14.3210  -24.1880 C   0  0  0  0  0  2  0  0  0  0  0  0
  -20.7690   14.6440  -25.2660 C   0  0  1  0  0  3  0  0  0  0  0  0
  -21.8010   15.5940  -24.6090 C   0  0  1  0  0  3  0  0  0  0  0  0
  -21.7220   15.1460  -23.1790 C   0  0  0  0  0  0  0  0  0  0  0  0
  -22.6230   15.3920  -22.1570 C   0  0  0  0  0  3  0  0  0  0  0  0
  -22.3330   14.8980  -20.8830 C   0  0  0  0  0  3  0  0  0  0  0  0
  -20.1790   15.1480  -26.4750 N   0  0  0  0  0  0  0  0  0  0  0  0
  -19.8200   16.1030  -26.4740 H   0  0  0  0  0  0  0  0  0  0  0  0
  -20.0700   14.4050  -27.6450 C   0  0  0  0  0  0  0  0  0  0  0  0
  -20.4600   13.2480  -27.7830 O   0  0  0  0  0  0  0  0  0  0  0  0
  -19.4110   15.1950  -28.7480 C   0  0  0  0  0  2  0  0  0  0  0  0
  -20.4020   16.0800  -29.3800 N   0  0  0  0  0  0  0  0  0  0  0  0
  -21.4460   15.5000  -30.0620 N   0  0  0  0  0  0  0  0  0  0  0  0
  -21.4760   14.4860  -30.0940 H   0  0  0  0  0  0  0  0  0  0  0  0
  -22.4170   16.2470  -30.6790 C   0  0  0  0  0  0  0  0  0  0  0  0
  -23.3630   15.7620  -31.2960 O   0  0  0  0  0  0  0  0  0  0  0  0
  -22.2800   17.7120  -30.5730 C   0  0  0  0  0  3  0  0  0  0  0  0
  -21.2620   18.2600  -29.9110 C   0  0  0  0  0  3  0  0  0  0  0  0
  -20.2310   17.4280  -29.2540 C   0  0  0  0  0  0  0  0  0  0  0  0
  -19.3110   17.9840  -28.6530 O   0  0  0  0  0  0  0  0  0  0  0  0
  -21.4710   16.9890  -24.7400 N   0  0  0  0  0  0  0  0  0  0  0  0
  -20.8840   17.4090  -24.0230 H   0  0  0  0  0  0  0  0  0  0  0  0
  -21.8920   17.7520  -25.8200 C   0  0  0  0  0  0  0  0  0  0  0  0
  -22.5700   17.3420  -26.7560 O   0  0  0  0  0  0  0  0  0  0  0  0
  -21.4190   19.1610  -25.7270 C   0  0  0  0  0  3  0  0  0  0  0  0
  -20.4110   19.4780  -24.9050 C   0  0  0  0  0  3  0  0  0  0  0  0
  -19.9060   20.8150  -24.7640 C   0  0  0  0  0  0  0  0  0  0  0  0
  -18.7020   21.2370  -25.5240 C   0  0  0  0  0  0  0  0  0  0  0  0
  -18.1020   20.4840  -26.2850 O   0  0  0  0  0  0  0  0  0  0  0  0
  -18.3320   22.5490  -25.2910 N   0  0  0  0  0  0  0  0  0  0  0  0
  -17.5150   22.9060  -25.7780 H   0  0  0  0  0  0  0  0  0  0  0  0
  -19.0270   23.3720  -24.4280 C   0  0  0  0  0  0  0  0  0  0  0  0
  -20.0780   23.0070  -23.7620 N   0  0  0  0  0  0  0  0  0  0  0  0
  -18.4890   24.7670  -24.2890 C   0  0  0  0  0  1  0  0  0  0  0  0
  -20.4910   21.7110  -23.9570 C   0  0  0  0  0  3  0  0  0  0  0  0
  2  1  2  0  0  0  0
  3  2  1  0  0  0  0
  4  3  1  0  0  0  0
  5 10  1  6  0  0  0
  5  6  1  0  0  0  0
  5  4  1  0  0  0  0
  6 24  1  1  0  0  0
  6  7  1  0  0  0  0
  7  3  2  0  0  0  0
  7  8  1  0  0  0  0
  8  9  2  0  0  0  0
  9  1  1  0  0  0  0
 10 11  1  0  0  0  0
 12 10  1  0  0  0  0
 13 12  2  0  0  0  0
 14 12  1  0  0  0  0
 15 22  1  0  0  0  0
 15 14  1  0  0  0  0
 16 15  1  0  0  0  0
 17 16  1  0  0  0  0
 18 20  1  0  0  0  0
 18 16  1  0  0  0  0
 19 18  2  0  0  0  0
 20 21  2  0  0  0  0
 21 22  1  0  0  0  0
 22 23  2  0  0  0  0
 24 25  1  0  0  0  0
 26 28  1  0  0  0  0
 26 24  1  0  0  0  0
 27 26  2  0  0  0  0
 28 29  2  0  0  0  0
 29 30  1  0  0  0  0
 30 38  2  0  0  0  0
 31 33  1  0  0  0  0
 31 30  1  0  0  0  0
 32 31  2  0  0  0  0
 33 35  1  0  0  0  0
 34 33  1  0  0  0  0
 35 37  1  0  0  0  0
 35 36  2  0  0  0  0
 38 36  1  0  0  0  0
M  END
>  <VSCORE>
 -8.7

>  <MODEL>
1

>  <TORSDO>
F 6

$$$$
65
 OpenBabel08042114533D

 34 36  0  0  1  0  0  0  0  0999 V2000
  -21.2290   16.0320  -27.1020 C   0  0  1  0  0  3  0  0  0  0  0  0
  -21.7550   12.6730  -29.7480 C   0  0  0  0  0  3  0  0  0  0  0  0
  -20.4780   13.1840  -29.5160 C   0  0  0  0  0  3  0  0  0  0  0  0
  -20.3090   14.2720  -28.6590 C   0  0  0  0  0  3  0  0  0  0  0  0
  -21.4140   14.8480  -28.0350 C   0  0  0  0  0  0  0  0  0  0  0  0
  -22.6910   14.3360  -28.2670 C   0  0  0  0  0  3  0  0  0  0  0  0
  -22.8610   13.2480  -29.1240 C   0  0  0  0  0  3  0  0  0  0  0  0
  -20.9380   15.5790  -25.7370 N   0  0  0  0  0  0  0  0  0  0  0  0
  -20.0330   15.1890  -25.5360 H   0  0  0  0  0  0  0  0  0  0  0  0
  -21.8600   15.6720  -24.7310 C   0  0  0  0  0  0  0  0  0  0  0  0
  -23.0000   16.1170  -24.8010 O   0  0  0  0  0  0  0  0  0  0  0  0
  -21.3340   15.1500  -23.4560 C   0  0  0  0  0  0  0  0  0  0  0  0
  -20.0470   14.7770  -23.4180 C   0  0  0  0  0  3  0  0  0  0  0  0
  -19.4800   14.2430  -22.1420 C   0  0  0  0  0  0  0  0  0  0  0  0
  -18.3030   13.8940  -22.0840 O   0  0  0  0  0  0  0  0  0  0  0  0
  -20.3620   14.1780  -21.0750 N   0  0  0  0  0  0  0  0  0  0  0  0
  -20.0290   13.8230  -20.1830 H   0  0  0  0  0  0  0  0  0  0  0  0
  -21.6760   14.5700  -21.1520 C   0  0  0  0  0  3  0  0  0  0  0  0
  -22.1830   15.0480  -22.2940 C   0  0  0  0  0  3  0  0  0  0  0  0
  -20.1400   17.0090  -27.5740 C   0  0  0  0  0  2  0  0  0  0  0  0
  -20.4650   18.3810  -27.2570 N   0  0  0  0  0  0  0  0  0  0  0  0
  -21.0740   18.8910  -27.8910 H   0  0  0  0  0  0  0  0  0  0  0  0
  -19.9890   19.0350  -26.1300 C   0  0  0  0  0  0  0  0  0  0  0  0
  -19.2490   18.5400  -25.2840 O   0  0  0  0  0  0  0  0  0  0  0  0
  -20.4920   20.4540  -26.0650 C   0  0  0  0  0  2  0  0  0  0  0  0
  -19.3720   21.3610  -25.9020 N   0  0  0  0  0  0  0  0  0  0  0  0
  -18.2670   21.2080  -26.7200 N   0  0  0  0  0  0  0  0  0  0  0  0
  -18.3050   20.4540  -27.3980 H   0  0  0  0  0  0  0  0  0  0  0  0
  -17.1630   22.0190  -26.6380 C   0  0  0  0  0  0  0  0  0  0  0  0
  -16.1740   21.8990  -27.3560 O   0  0  0  0  0  0  0  0  0  0  0  0
  -17.2090   23.0830  -25.6170 C   0  0  0  0  0  3  0  0  0  0  0  0
  -18.2720   23.2320  -24.8270 C   0  0  0  0  0  3  0  0  0  0  0  0
  -19.4480   22.3410  -24.9390 C   0  0  0  0  0  0  0  0  0  0  0  0
  -20.4040   22.5220  -24.1860 O   0  0  0  0  0  0  0  0  0  0  0  0
  1 20  1  6  0  0  0
  1  8  1  0  0  0  0
  2  3  2  0  0  0  0
  2  7  1  0  0  0  0
  3  4  1  0  0  0  0
  4  5  2  0  0  0  0
  5  1  1  0  0  0  0
  6  5  1  0  0  0  0
  7  6  2  0  0  0  0
  8  9  1  0  0  0  0
  8 10  1  0  0  0  0
 10 12  1  0  0  0  0
 11 10  2  0  0  0  0
 12 13  2  0  0  0  0
 12 19  1  0  0  0  0
 13 14  1  0  0  0  0
 14 15  2  0  0  0  0
 14 16  1  0  0  0  0
 16 17  1  0  0  0  0
 18 16  1  0  0  0  0
 19 18  2  0  0  0  0
 20 21  1  0  0  0  0
 21 23  1  0  0  0  0
 22 21  1  0  0  0  0
 23 25  1  0  0  0  0
 23 24  2  0  0  0  0
 25 26  1  0  0  0  0
 26 33  1  0  0  0  0
 27 29  1  0  0  0  0
 27 26  1  0  0  0  0
 28 27  1  0  0  0  0
 29 31  1  0  0  0  0
 30 29  2  0  0  0  0
 31 32  2  0  0  0  0
 33 32  1  0  0  0  0
 33 34  2  0  0  0  0
M  END
>  <VSCORE>
 -8.5

>  <MODEL>
1

>  <TORSDO>
F 7

$$$$
66
 OpenBabel08042114533D

 39 42  0  0  1  0  0  0  0  0999 V2000
  -22.9950   13.5670  -30.3840 C   0  0  0  0  0  3  0  0  0  0  0  0
  -22.5520   14.8890  -30.4260 C   0  0  0  0  0  3  0  0  0  0  0  0
  -21.9050   15.4010  -29.3130 C   0  0  0  0  0  0  0  0  0  0  0  0
  -21.3800   16.7910  -29.1210 C   0  0  0  0  0  2  0  0  0  0  0  0
  -20.4210   16.5740  -27.9380 C   0  0  2  0  0  3  0  0  0  0  0  0
  -21.0280   15.4310  -27.0890 C   0  0  1  0  0  3  0  0  0  0  0  0
  -21.7040   14.6230  -28.1650 C   0  0  0  0  0  0  0  0  0  0  0  0
  -22.1540   13.3120  -28.1140 C   0  0  0  0  0  3  0  0  0  0  0  0
  -22.7970   12.7830  -29.2370 C   0  0  0  0  0  3  0  0  0  0  0  0
  -20.2020   17.7740  -27.1780 N   0  0  0  0  0  0  0  0  0  0  0  0
  -20.8520   17.9870  -26.4230 H   0  0  0  0  0  0  0  0  0  0  0  0
  -19.1250   18.6170  -27.4140 C   0  0  0  0  0  0  0  0  0  0  0  0
  -18.2630   18.4420  -28.2690 O   0  0  0  0  0  0  0  0  0  0  0  0
  -19.1170   19.7880  -26.4940 C   0  0  0  0  0  3  0  0  0  0  0  0
  -18.4160   20.8850  -26.8090 C   0  0  0  0  0  3  0  0  0  0  0  0
  -18.3640   22.0490  -25.9680 C   0  0  0  0  0  0  0  0  0  0  0  0
  -17.0920   22.8030  -25.8240 C   0  0  0  0  0  0  0  0  0  0  0  0
  -16.0600   22.4740  -26.3990 O   0  0  0  0  0  0  0  0  0  0  0  0
  -17.1920   23.8970  -24.9850 N   0  0  0  0  0  0  0  0  0  0  0  0
  -16.3590   24.4610  -24.8400 H   0  0  0  0  0  0  0  0  0  0  0  0
  -18.3690   24.2420  -24.3530 C   0  0  0  0  0  0  0  0  0  0  0  0
  -19.4800   23.5860  -24.4760 N   0  0  0  0  0  0  0  0  0  0  0  0
  -18.3020   25.4600  -23.4770 C   0  0  0  0  0  1  0  0  0  0  0  0
  -19.4390   22.4860  -25.2990 C   0  0  0  0  0  3  0  0  0  0  0  0
  -19.9760   14.6770  -26.2870 C   0  0  0  0  0  2  0  0  0  0  0  0
  -20.5350   14.2250  -25.0560 N   0  0  0  0  0  0  0  0  0  0  0  0
  -21.4100   13.6930  -25.0900 H   0  0  0  0  0  0  0  0  0  0  0  0
  -19.9600   14.4630  -23.8030 C   0  0  0  0  0  0  0  0  0  0  0  0
  -18.9160   15.0840  -23.6230 O   0  0  0  0  0  0  0  0  0  0  0  0
  -20.7750   13.8680  -22.6830 C   0  0  0  0  0  2  0  0  0  0  0  0
  -21.2970   14.9440  -21.8290 N   0  0  0  0  0  0  0  0  0  0  0  0
  -20.6900   16.1770  -21.8970 N   0  0  0  0  0  0  0  0  0  0  0  0
  -19.9080   16.2770  -22.5370 H   0  0  0  0  0  0  0  0  0  0  0  0
  -21.1120   17.2390  -21.1390 C   0  0  0  0  0  0  0  0  0  0  0  0
  -20.5940   18.3530  -21.1760 O   0  0  0  0  0  0  0  0  0  0  0  0
  -22.2550   16.9880  -20.2410 C   0  0  0  0  0  3  0  0  0  0  0  0
  -22.8320   15.7890  -20.1840 C   0  0  0  0  0  3  0  0  0  0  0  0
  -22.3560   14.6620  -21.0150 C   0  0  0  0  0  0  0  0  0  0  0  0
  -22.9250   13.5750  -20.9250 O   0  0  0  0  0  0  0  0  0  0  0  0
  1  9  1  0  0  0  0
  2  1  2  0  0  0  0
  2  3  1  0  0  0  0
  3  4  1  0  0  0  0
  3  7  2  0  0  0  0
  4  5  1  0  0  0  0
  5 10  1  1  0  0  0
  5  6  1  0  0  0  0
  6 25  1  6  0  0  0
  7  8  1  0  0  0  0
  7  6  1  0  0  0  0
  9  8  2  0  0  0  0
 10 11  1  0  0  0  0
 12 10  1  0  0  0  0
 12 14  1  0  0  0  0
 13 12  2  0  0  0  0
 15 14  2  0  0  0  0
 15 16  1  0  0  0  0
 16 17  1  0  0  0  0
 16 24  2  0  0  0  0
 17 19  1  0  0  0  0
 18 17  2  0  0  0  0
 19 20  1  0  0  0  0
 19 21  1  0  0  0  0
 21 23  1  0  0  0  0
 22 21  2  0  0  0  0
 24 22  1  0  0  0  0
 25 26  1  0  0  0  0
 26 28  1  0  0  0  0
 27 26  1  0  0  0  0
 28 29  2  0  0  0  0
 28 30  1  0  0  0  0
 30 31  1  0  0  0  0
 31 38  1  0  0  0  0
 32 31  1  0  0  0  0
 32 34  1  0  0  0  0
 33 32  1  0  0  0  0
 34 36  1  0  0  0  0
 35 34  2  0  0  0  0
 36 37  2  0  0  0  0
 38 39  2  0  0  0  0
 38 37  1  0  0  0  0
M  END
>  <VSCORE>
 -9.0

>  <MODEL>
1

>  <TORSDO>
F 7

$$$$
67
 OpenBabel08042114533D

 38 41  0  0  1  0  0  0  0  0999 V2000
  -21.3010   15.0490  -20.9100 C   0  0  0  0  0  3  0  0  0  0  0  0
  -21.3000   16.2800  -21.5680 C   0  0  0  0  0  3  0  0  0  0  0  0
  -20.9720   16.3060  -22.9130 C   0  0  0  0  0  0  0  0  0  0  0  0
  -20.9400   17.4920  -23.8280 C   0  0  0  0  0  2  0  0  0  0  0  0
  -20.1090   16.9330  -25.0000 C   0  0  1  0  0  3  0  0  0  0  0  0
  -20.3830   15.4100  -25.0520 C   0  0  1  0  0  3  0  0  0  0  0  0
  -20.6630   15.1270  -23.6050 C   0  0  0  0  0  0  0  0  0  0  0  0
  -20.6680   13.9020  -22.9600 C   0  0  0  0  0  3  0  0  0  0  0  0
  -20.9860   13.8680  -21.6010 C   0  0  0  0  0  3  0  0  0  0  0  0
  -20.3630   17.6270  -26.2320 N   0  0  0  0  0  0  0  0  0  0  0  0
  -21.1600   17.3310  -26.7930 H   0  0  0  0  0  0  0  0  0  0  0  0
  -19.5900   18.7000  -26.6530 C   0  0  0  0  0  0  0  0  0  0  0  0
  -18.6330   19.1650  -26.0430 O   0  0  0  0  0  0  0  0  0  0  0  0
  -20.0560   19.2500  -27.9570 C   0  0  0  0  0  3  0  0  0  0  0  0
  -20.5030   20.5100  -28.0310 C   0  0  0  0  0  3  0  0  0  0  0  0
  -20.9670   21.1030  -29.2540 C   0  0  0  0  0  0  0  0  0  0  0  0
  -22.3880   21.5150  -29.3870 C   0  0  0  0  0  0  0  0  0  0  0  0
  -23.2050   21.3720  -28.4830 O   0  0  0  0  0  0  0  0  0  0  0  0
  -22.6890   22.0700  -30.6170 N   0  0  0  0  0  0  0  0  0  0  0  0
  -23.6450   22.3750  -30.7780 H   0  0  0  0  0  0  0  0  0  0  0  0
  -21.7490   22.2190  -31.6150 C   0  0  0  0  0  0  0  0  0  0  0  0
  -20.5080   21.8590  -31.5030 N   0  0  0  0  0  0  0  0  0  0  0  0
  -22.2450   22.8380  -32.8890 C   0  0  0  0  0  1  0  0  0  0  0  0
  -20.1500   21.3020  -30.3000 C   0  0  0  0  0  3  0  0  0  0  0  0
  -21.5030   15.0490  -25.8820 N   0  0  0  0  0  0  0  0  0  0  0  0
  -22.4010   15.4910  -25.7000 H   0  0  0  0  0  0  0  0  0  0  0  0
  -21.4210   14.1270  -26.9210 C   0  0  0  0  0  0  0  0  0  0  0  0
  -20.4030   13.5230  -27.2490 O   0  0  0  0  0  0  0  0  0  0  0  0
  -22.7500   13.9500  -27.6100 C   0  0  0  0  0  2  0  0  0  0  0  0
  -22.7510   14.6940  -28.8790 N   0  0  0  0  0  0  0  0  0  0  0  0
  -22.6700   16.0660  -28.8250 N   0  0  0  0  0  0  0  0  0  0  0  0
  -22.6160   16.4950  -27.9060 H   0  0  0  0  0  0  0  0  0  0  0  0
  -22.6610   16.8400  -29.9570 C   0  0  0  0  0  0  0  0  0  0  0  0
  -22.5890   18.0670  -29.9450 O   0  0  0  0  0  0  0  0  0  0  0  0
  -22.7440   16.1200  -31.2410 C   0  0  0  0  0  3  0  0  0  0  0  0
  -22.8240   14.7900  -31.2790 C   0  0  0  0  0  3  0  0  0  0  0  0
  -22.8290   13.9820  -30.0400 C   0  0  0  0  0  0  0  0  0  0  0  0
  -22.9030   12.7570  -30.1300 O   0  0  0  0  0  0  0  0  0  0  0  0
  2  1  1  0  0  0  0
  3  2  2  0  0  0  0
  4  3  1  0  0  0  0
  5 10  1  6  0  0  0
  5  4  1  0  0  0  0
  6 25  1  6  0  0  0
  6  5  1  0  0  0  0
  6  7  1  0  0  0  0
  7  8  2  0  0  0  0
  7  3  1  0  0  0  0
  8  9  1  0  0  0  0
  9  1  2  0  0  0  0
 11 10  1  0  0  0  0
 12 10  1  0  0  0  0
 12 13  2  0  0  0  0
 14 12  1  0  0  0  0
 15 14  2  0  0  0  0
 16 15  1  0  0  0  0
 17 16  1  0  0  0  0
 17 18  2  0  0  0  0
 19 17  1  0  0  0  0
 20 19  1  0  0  0  0
 21 22  2  0  0  0  0
 21 19  1  0  0  0  0
 22 24  1  0  0  0  0
 23 21  1  0  0  0  0
 24 16  2  0  0  0  0
 25 26  1  0  0  0  0
 27 25  1  0  0  0  0
 28 27  2  0  0  0  0
 29 27  1  0  0  0  0
 30 31  1  0  0  0  0
 30 29  1  0  0  0  0
 31 32  1  0  0  0  0
 33 34  2  0  0  0  0
 33 31  1  0  0  0  0
 35 33  1  0  0  0  0
 36 35  2  0  0  0  0
 36 37  1  0  0  0  0
 37 30  1  0  0  0  0
 38 37  2  0  0  0  0
M  END
>  <VSCORE>
 -8.6

>  <MODEL>
1

>  <TORSDO>
F 6

$$$$
68
 OpenBabel08042114533D

 38 41  0  0  1  0  0  0  0  0999 V2000
  -20.7360   14.5210  -22.0260 C   0  0  0  0  0  3  0  0  0  0  0  0
  -21.8560   14.8960  -22.7720 C   0  0  0  0  0  3  0  0  0  0  0  0
  -21.6680   15.2930  -24.0860 C   0  0  0  0  0  0  0  0  0  0  0  0
  -22.7030   15.7650  -25.0580 C   0  0  0  0  0  2  0  0  0  0  0  0
  -21.9460   15.6780  -26.4050 C   0  0  1  0  0  3  0  0  0  0  0  0
  -20.4400   15.8270  -26.0670 C   0  0  2  0  0  3  0  0  0  0  0  0
  -20.3890   15.3340  -24.6510 C   0  0  0  0  0  0  0  0  0  0  0  0
  -19.2720   14.9710  -23.9160 C   0  0  0  0  0  3  0  0  0  0  0  0
  -19.4540   14.5580  -22.5940 C   0  0  0  0  0  3  0  0  0  0  0  0
  -20.0010   17.1950  -26.1610 N   0  0  0  0  0  0  0  0  0  0  0  0
  -19.9860   17.7500  -25.3090 H   0  0  0  0  0  0  0  0  0  0  0  0
  -19.5660   17.7530  -27.3550 C   0  0  0  0  0  0  0  0  0  0  0  0
  -19.5080   17.1670  -28.4310 O   0  0  0  0  0  0  0  0  0  0  0  0
  -19.1620   19.1770  -27.1910 C   0  0  0  0  0  3  0  0  0  0  0  0
  -19.0280   19.6990  -25.9660 C   0  0  0  0  0  3  0  0  0  0  0  0
  -18.6430   21.0630  -25.7350 C   0  0  0  0  0  0  0  0  0  0  0  0
  -17.3290   21.5570  -26.2250 C   0  0  0  0  0  0  0  0  0  0  0  0
  -16.5390   20.8410  -26.8340 O   0  0  0  0  0  0  0  0  0  0  0  0
  -17.0960   22.8860  -25.9300 N   0  0  0  0  0  0  0  0  0  0  0  0
  -16.2200   23.3060  -26.2300 H   0  0  0  0  0  0  0  0  0  0  0  0
  -18.0080   23.6570  -25.2450 C   0  0  0  0  0  3  0  0  0  0  0  0
  -19.1520   23.2390  -24.8140 N   0  0  0  0  0  0  0  0  0  0  0  0
  -19.4390   21.9220  -25.0800 C   0  0  0  0  0  3  0  0  0  0  0  0
  -22.2240   14.3420  -27.1060 C   0  0  0  0  0  2  0  0  0  0  0  0
  -22.7720   14.5860  -28.3940 N   0  0  0  0  0  0  0  0  0  0  0  0
  -23.7880   14.7110  -28.4700 H   0  0  0  0  0  0  0  0  0  0  0  0
  -22.0110   14.6670  -29.5680 C   0  0  0  0  0  0  0  0  0  0  0  0
  -20.7910   14.5380  -29.6140 O   0  0  0  0  0  0  0  0  0  0  0  0
  -22.8640   14.9330  -30.7820 C   0  0  0  0  0  2  0  0  0  0  0  0
  -22.8560   16.3710  -31.0860 N   0  0  0  0  0  0  0  0  0  0  0  0
  -21.7480   17.1030  -30.7270 N   0  0  0  0  0  0  0  0  0  0  0  0
  -20.9900   16.6080  -30.2680 H   0  0  0  0  0  0  0  0  0  0  0  0
  -21.6530   18.4490  -30.9730 C   0  0  0  0  0  0  0  0  0  0  0  0
  -20.6780   19.1320  -30.6670 O   0  0  0  0  0  0  0  0  0  0  0  0
  -22.8100   19.0740  -31.6430 C   0  0  0  0  0  3  0  0  0  0  0  0
  -23.8770   18.3530  -31.9840 C   0  0  0  0  0  3  0  0  0  0  0  0
  -23.9510   16.9020  -31.7070 C   0  0  0  0  0  0  0  0  0  0  0  0
  -24.9580   16.2820  -32.0430 O   0  0  0  0  0  0  0  0  0  0  0  0
  2  1  2  0  0  0  0
  3  2  1  0  0  0  0
  4  3  1  0  0  0  0
  5 24  1  1  0  0  0
  5  6  1  0  0  0  0
  5  4  1  0  0  0  0
  6 10  1  1  0  0  0
  6  7  1  0  0  0  0
  7  3  2  0  0  0  0
  7  8  1  0  0  0  0
  8  9  2  0  0  0  0
  9  1  1  0  0  0  0
 10 11  1  0  0  0  0
 12 14  1  0  0  0  0
 12 10  1  0  0  0  0
 13 12  2  0  0  0  0
 14 15  2  0  0  0  0
 15 16  1  0  0  0  0
 16 23  2  0  0  0  0
 17 19  1  0  0  0  0
 17 16  1  0  0  0  0
 18 17  2  0  0  0  0
 19 21  1  0  0  0  0
 20 19  1  0  0  0  0
 21 22  2  0  0  0  0
 23 22  1  0  0  0  0
 25 24  1  0  0  0  0
 26 25  1  0  0  0  0
 27 25  1  0  0  0  0
 28 27  2  0  0  0  0
 29 27  1  0  0  0  0
 30 29  1  0  0  0  0
 30 31  1  0  0  0  0
 31 32  1  0  0  0  0
 33 31  1  0  0  0  0
 33 34  2  0  0  0  0
 35 33  1  0  0  0  0
 36 37  1  0  0  0  0
 36 35  2  0  0  0  0
 37 30  1  0  0  0  0
 38 37  2  0  0  0  0
M  END
>  <VSCORE>
 -9.3

>  <MODEL>
1

>  <TORSDO>
F 7

$$$$
69
 OpenBabel08042114533D

 38 41  0  0  1  0  0  0  0  0999 V2000
  -23.4720   14.7960  -20.1470 C   0  0  0  0  0  3  0  0  0  0  0  0
  -23.5080   16.0340  -20.7900 C   0  0  0  0  0  3  0  0  0  0  0  0
  -22.6340   16.2540  -21.8420 C   0  0  0  0  0  0  0  0  0  0  0  0
  -22.4730   17.5060  -22.6480 C   0  0  0  0  0  2  0  0  0  0  0  0
  -21.7260   16.9610  -23.8780 C   0  0  2  0  0  3  0  0  0  0  0  0
  -20.8610   15.7800  -23.3740 C   0  0  1  0  0  3  0  0  0  0  0  0
  -21.7250   15.2690  -22.2520 C   0  0  0  0  0  0  0  0  0  0  0  0
  -21.6770   14.0410  -21.6080 C   0  0  0  0  0  3  0  0  0  0  0  0
  -22.5630   13.8060  -20.5530 C   0  0  0  0  0  3  0  0  0  0  0  0
  -20.9520   17.9710  -24.5460 N   0  0  0  0  0  0  0  0  0  0  0  0
  -20.0860   18.2790  -24.1080 H   0  0  0  0  0  0  0  0  0  0  0  0
  -21.3250   18.5010  -25.7740 C   0  0  0  0  0  0  0  0  0  0  0  0
  -22.3250   18.1810  -26.4090 O   0  0  0  0  0  0  0  0  0  0  0  0
  -20.3590   19.5260  -26.2590 C   0  0  0  0  0  3  0  0  0  0  0  0
  -19.3870   19.9680  -25.4500 C   0  0  0  0  0  3  0  0  0  0  0  0
  -18.4230   20.9540  -25.8520 C   0  0  0  0  0  0  0  0  0  0  0  0
  -18.4160   22.2910  -25.2020 C   0  0  0  0  0  0  0  0  0  0  0  0
  -19.2090   22.6020  -24.3200 O   0  0  0  0  0  0  0  0  0  0  0  0
  -17.4360   23.1350  -25.6910 N   0  0  0  0  0  0  0  0  0  0  0  0
  -17.3590   24.0700  -25.3010 H   0  0  0  0  0  0  0  0  0  0  0  0
  -16.5640   22.7480  -26.6830 C   0  0  0  0  0  3  0  0  0  0  0  0
  -16.5610   21.5890  -27.2550 N   0  0  0  0  0  0  0  0  0  0  0  0
  -17.5150   20.7070  -26.8080 C   0  0  0  0  0  3  0  0  0  0  0  0
  -20.5640   14.7650  -24.4690 C   0  0  0  0  0  2  0  0  0  0  0  0
  -21.6570   14.7000  -25.3820 N   0  0  0  0  0  0  0  0  0  0  0  0
  -22.5890   14.9520  -25.0380 H   0  0  0  0  0  0  0  0  0  0  0  0
  -21.5340   14.3140  -26.7210 C   0  0  0  0  0  0  0  0  0  0  0  0
  -20.4780   13.9890  -27.2570 O   0  0  0  0  0  0  0  0  0  0  0  0
  -22.8580   14.3370  -27.4410 C   0  0  0  0  0  2  0  0  0  0  0  0
  -22.7100   15.0440  -28.7210 N   0  0  0  0  0  0  0  0  0  0  0  0
  -22.3990   16.3840  -28.6880 N   0  0  0  0  0  0  0  0  0  0  0  0
  -22.2880   16.8150  -27.7750 H   0  0  0  0  0  0  0  0  0  0  0  0
  -22.2380   17.1230  -29.8320 C   0  0  0  0  0  0  0  0  0  0  0  0
  -21.9600   18.3200  -29.8380 O   0  0  0  0  0  0  0  0  0  0  0  0
  -22.4210   16.4020  -31.1060 C   0  0  0  0  0  3  0  0  0  0  0  0
  -22.7240   15.1050  -31.1240 C   0  0  0  0  0  3  0  0  0  0  0  0
  -22.8890   14.3340  -29.8730 C   0  0  0  0  0  0  0  0  0  0  0  0
  -23.1680   13.1370  -29.9440 O   0  0  0  0  0  0  0  0  0  0  0  0
  2  1  2  0  0  0  0
  3  2  1  0  0  0  0
  4  3  1  0  0  0  0
  5 10  1  1  0  0  0
  5  6  1  0  0  0  0
  5  4  1  0  0  0  0
  6 24  1  6  0  0  0
  6  7  1  0  0  0  0
  7  3  2  0  0  0  0
  7  8  1  0  0  0  0
  8  9  2  0  0  0  0
  9  1  1  0  0  0  0
 10 11  1  0  0  0  0
 12 10  1  0  0  0  0
 13 12  2  0  0  0  0
 14 12  1  0  0  0  0
 14 15  2  0  0  0  0
 16 15  1  0  0  0  0
 16 17  1  0  0  0  0
 17 18  2  0  0  0  0
 19 20  1  0  0  0  0
 19 17  1  0  0  0  0
 21 19  1  0  0  0  0
 22 23  1  0  0  0  0
 22 21  2  0  0  0  0
 23 16  2  0  0  0  0
 25 26  1  0  0  0  0
 25 24  1  0  0  0  0
 27 25  1  0  0  0  0
 28 27  2  0  0  0  0
 29 27  1  0  0  0  0
 30 31  1  0  0  0  0
 30 29  1  0  0  0  0
 31 32  1  0  0  0  0
 33 31  1  0  0  0  0
 34 33  2  0  0  0  0
 35 33  1  0  0  0  0
 36 35  2  0  0  0  0
 36 37  1  0  0  0  0
 37 30  1  0  0  0  0
 38 37  2  0  0  0  0
M  END
>  <VSCORE>
 -8.4

>  <MODEL>
1

>  <TORSDO>
F 7

$$$$
6
 OpenBabel08042114533D

 38 41  0  0  1  0  0  0  0  0999 V2000
  -25.2380   22.1030  -33.7250 C   0  0  0  0  0  3  0  0  0  0  0  0
  -23.8800   22.4100  -33.6670 C   0  0  0  0  0  3  0  0  0  0  0  0
  -23.0350   21.6940  -32.8130 C   0  0  0  0  0  0  0  0  0  0  0  0
  -21.5650   21.9810  -32.7390 C   0  0  0  0  0  2  0  0  0  0  0  0
  -21.0620   21.8550  -31.3040 C   0  0  0  0  0  2  0  0  0  0  0  0
  -21.5080   20.6460  -30.5850 N   0  0  0  0  0  0  0  0  0  0  0  0
  -22.6140   19.8420  -31.1580 C   0  0  1  0  0  3  0  0  0  0  0  0
  -20.9580   20.2320  -29.3650 C   0  0  0  0  0  0  0  0  0  0  0  0
  -21.3090   19.2290  -28.7430 O   0  0  0  0  0  0  0  0  0  0  0  0
  -23.5490   20.6500  -32.0300 C   0  0  0  0  0  0  0  0  0  0  0  0
  -24.9140   20.3440  -32.1010 C   0  0  0  0  0  3  0  0  0  0  0  0
  -25.7560   21.0720  -32.9410 C   0  0  0  0  0  3  0  0  0  0  0  0
  -19.8860   21.0660  -28.7830 C   0  0  0  0  0  3  0  0  0  0  0  0
  -19.4390   20.7680  -27.5580 C   0  0  0  0  0  3  0  0  0  0  0  0
  -18.4030   21.5150  -26.9000 C   0  0  0  0  0  0  0  0  0  0  0  0
  -18.7220   22.3230  -25.6950 C   0  0  0  0  0  0  0  0  0  0  0  0
  -19.8520   22.3860  -25.2190 O   0  0  0  0  0  0  0  0  0  0  0  0
  -17.6280   22.9860  -25.1710 N   0  0  0  0  0  0  0  0  0  0  0  0
  -17.7580   23.5620  -24.3450 H   0  0  0  0  0  0  0  0  0  0  0  0
  -16.3760   22.8910  -25.7320 C   0  0  0  0  0  3  0  0  0  0  0  0
  -16.0860   22.1910  -26.7800 N   0  0  0  0  0  0  0  0  0  0  0  0
  -17.1360   21.5090  -27.3440 C   0  0  0  0  0  3  0  0  0  0  0  0
  -22.0610   18.6370  -31.9290 C   0  0  0  0  0  2  0  0  0  0  0  0
  -22.5070   17.3150  -31.3280 C   0  0  0  0  0  2  0  0  0  0  0  0
  -21.4620   16.6680  -30.5830 N   0  0  0  0  0  0  0  0  0  0  0  0
  -20.5080   16.7300  -30.9350 H   0  0  0  0  0  0  0  0  0  0  0  0
  -21.6840   15.9590  -29.4050 C   0  0  0  0  0  0  0  0  0  0  0  0
  -22.7800   15.8070  -28.8710 O   0  0  0  0  0  0  0  0  0  0  0  0
  -20.4030   15.3890  -28.8490 C   0  0  0  0  0  2  0  0  0  0  0  0
  -20.3480   15.6250  -27.3990 N   0  0  0  0  0  0  0  0  0  0  0  0
  -20.4930   16.9160  -26.9470 N   0  0  0  0  0  0  0  0  0  0  0  0
  -20.6320   17.6420  -27.6440 H   0  0  0  0  0  0  0  0  0  0  0  0
  -20.4570   17.2290  -25.6120 C   0  0  0  0  0  0  0  0  0  0  0  0
  -20.5860   18.3700  -25.1740 O   0  0  0  0  0  0  0  0  0  0  0  0
  -20.2500   16.1030  -24.6820 C   0  0  0  0  0  3  0  0  0  0  0  0
  -20.1080   14.8580  -25.1340 C   0  0  0  0  0  3  0  0  0  0  0  0
  -20.1530   14.5510  -26.5790 C   0  0  0  0  0  0  0  0  0  0  0  0
  -20.0170   13.3830  -26.9440 O   0  0  0  0  0  0  0  0  0  0  0  0
  1  2  2  0  0  0  0
  1 12  1  0  0  0  0
  2  3  1  0  0  0  0
  3  4  1  0  0  0  0
  3 10  2  0  0  0  0
  4  5  1  0  0  0  0
  5  6  1  0  0  0  0
  6  8  1  0  0  0  0
  7 23  1  6  0  0  0
  7  6  1  0  0  0  0
  8 13  1  0  0  0  0
  8  9  2  0  0  0  0
 10  7  1  0  0  0  0
 11 10  1  0  0  0  0
 12 11  2  0  0  0  0
 13 14  2  0  0  0  0
 14 15  1  0  0  0  0
 15 16  1  0  0  0  0
 16 17  2  0  0  0  0
 16 18  1  0  0  0  0
 18 19  1  0  0  0  0
 20 18  1  0  0  0  0
 21 20  2  0  0  0  0
 22 15  2  0  0  0  0
 22 21  1  0  0  0  0
 23 24  1  0  0  0  0
 24 25  1  0  0  0  0
 25 27  1  0  0  0  0
 26 25  1  0  0  0  0
 27 28  2  0  0  0  0
 27 29  1  0  0  0  0
 29 30  1  0  0  0  0
 30 31  1  0  0  0  0
 30 37  1  0  0  0  0
 31 33  1  0  0  0  0
 32 31  1  0  0  0  0
 33 34  2  0  0  0  0
 33 35  1  0  0  0  0
 36 35  2  0  0  0  0
 37 36  1  0  0  0  0
 38 37  2  0  0  0  0
M  END
>  <VSCORE>
 -8.9

>  <MODEL>
1

>  <TORSDO>
F 7

$$$$
70
 OpenBabel08042114533D

 37 40  0  0  1  0  0  0  0  0999 V2000
  -21.7250   15.5210  -21.0170 C   0  0  0  0  0  3  0  0  0  0  0  0
  -21.6490   16.6350  -21.8540 C   0  0  0  0  0  3  0  0  0  0  0  0
  -21.1610   16.4610  -23.1380 C   0  0  0  0  0  0  0  0  0  0  0  0
  -21.0210   17.4910  -24.2170 C   0  0  0  0  0  2  0  0  0  0  0  0
  -20.0540   16.7760  -25.1800 C   0  0  1  0  0  3  0  0  0  0  0  0
  -20.3150   15.2580  -25.0260 C   0  0  1  0  0  3  0  0  0  0  0  0
  -20.7670   15.1960  -23.5970 C   0  0  0  0  0  0  0  0  0  0  0  0
  -20.8460   14.0850  -22.7730 C   0  0  0  0  0  3  0  0  0  0  0  0
  -21.3260   14.2540  -21.4730 C   0  0  0  0  0  3  0  0  0  0  0  0
  -20.1590   17.2660  -26.5260 N   0  0  0  0  0  0  0  0  0  0  0  0
  -20.7910   16.7830  -27.1630 H   0  0  0  0  0  0  0  0  0  0  0  0
  -19.4660   18.3860  -26.9660 C   0  0  0  0  0  0  0  0  0  0  0  0
  -18.7090   19.0640  -26.2800 O   0  0  0  0  0  0  0  0  0  0  0  0
  -19.7450   18.6920  -28.3960 C   0  0  0  0  0  3  0  0  0  0  0  0
  -20.2340   19.8900  -28.7420 C   0  0  0  0  0  3  0  0  0  0  0  0
  -20.5270   20.2520  -30.1010 C   0  0  0  0  0  0  0  0  0  0  0  0
  -20.8980   21.6530  -30.4320 C   0  0  0  0  0  0  0  0  0  0  0  0
  -20.9660   22.5380  -29.5850 O   0  0  0  0  0  0  0  0  0  0  0  0
  -21.1540   21.8520  -31.7770 N   0  0  0  0  0  0  0  0  0  0  0  0
  -21.4140   22.7820  -32.0900 H   0  0  0  0  0  0  0  0  0  0  0  0
  -21.0670   20.8330  -32.6970 C   0  0  0  0  0  3  0  0  0  0  0  0
  -20.7450   19.6130  -32.4220 N   0  0  0  0  0  0  0  0  0  0  0  0
  -20.4800   19.3550  -31.0980 C   0  0  0  0  0  3  0  0  0  0  0  0
  -21.3250   14.7490  -25.9170 N   0  0  0  0  0  0  0  0  0  0  0  0
  -22.2960   15.0000  -25.7400 H   0  0  0  0  0  0  0  0  0  0  0  0
  -21.0450   13.9310  -27.0070 C   0  0  0  0  0  0  0  0  0  0  0  0
  -19.9230   13.5530  -27.3340 O   0  0  0  0  0  0  0  0  0  0  0  0
  -22.2990   13.5530  -27.7530 C   0  0  0  0  0  2  0  0  0  0  0  0
  -22.4860   14.4620  -28.8940 N   0  0  0  0  0  0  0  0  0  0  0  0
  -22.7000   15.7950  -28.6310 N   0  0  0  0  0  0  0  0  0  0  0  0
  -22.7180   16.0820  -27.6570 H   0  0  0  0  0  0  0  0  0  0  0  0
  -22.8820   16.7150  -29.6320 C   0  0  0  0  0  0  0  0  0  0  0  0
  -23.0740   17.9120  -29.4330 O   0  0  0  0  0  0  0  0  0  0  0  0
  -22.8370   16.1950  -31.0120 C   0  0  0  0  0  3  0  0  0  0  0  0
  -22.6310   14.9000  -31.2520 C   0  0  0  0  0  3  0  0  0  0  0  0
  -22.4360   13.9320  -30.1510 C   0  0  0  0  0  0  0  0  0  0  0  0
  -22.2480   12.7480  -30.4260 O   0  0  0  0  0  0  0  0  0  0  0  0
  2  1  2  0  0  0  0
  3  2  1  0  0  0  0
  4  3  1  0  0  0  0
  5 10  1  6  0  0  0
  5  6  1  0  0  0  0
  5  4  1  0  0  0  0
  6 24  1  6  0  0  0
  6  7  1  0  0  0  0
  7  3  2  0  0  0  0
  7  8  1  0  0  0  0
  8  9  2  0  0  0  0
  9  1  1  0  0  0  0
 11 10  1  0  0  0  0
 12 10  1  0  0  0  0
 12 13  2  0  0  0  0
 14 12  1  0  0  0  0
 15 14  2  0  0  0  0
 16 15  1  0  0  0  0
 17 16  1  0  0  0  0
 17 18  2  0  0  0  0
 19 17  1  0  0  0  0
 20 19  1  0  0  0  0
 21 22  2  0  0  0  0
 21 19  1  0  0  0  0
 22 23  1  0  0  0  0
 23 16  2  0  0  0  0
 24 25  1  0  0  0  0
 26 24  1  0  0  0  0
 27 26  2  0  0  0  0
 28 26  1  0  0  0  0
 29 30  1  0  0  0  0
 29 28  1  0  0  0  0
 30 31  1  0  0  0  0
 32 33  2  0  0  0  0
 32 30  1  0  0  0  0
 34 32  1  0  0  0  0
 35 34  2  0  0  0  0
 35 36  1  0  0  0  0
 36 29  1  0  0  0  0
 37 36  2  0  0  0  0
M  END
>  <VSCORE>
 -8.8

>  <MODEL>
1

>  <TORSDO>
F 6

$$$$
71
 OpenBabel08042114533D

 37 40  0  0  1  0  0  0  0  0999 V2000
  -21.7240   14.3170  -20.8130 C   0  0  0  0  0  3  0  0  0  0  0  0
  -21.1150   13.8020  -21.9590 C   0  0  0  0  0  3  0  0  0  0  0  0
  -21.1660   14.5510  -23.1220 C   0  0  0  0  0  0  0  0  0  0  0  0
  -20.5590   14.2240  -24.4530 C   0  0  0  0  0  2  0  0  0  0  0  0
  -21.3260   15.1960  -25.3690 C   0  0  1  0  0  3  0  0  0  0  0  0
  -21.6820   16.4320  -24.5070 C   0  0  1  0  0  3  0  0  0  0  0  0
  -21.7960   15.8020  -23.1500 C   0  0  0  0  0  0  0  0  0  0  0  0
  -22.3960   16.3220  -22.0160 C   0  0  0  0  0  3  0  0  0  0  0  0
  -22.3610   15.5680  -20.8410 C   0  0  0  0  0  3  0  0  0  0  0  0
  -20.6050   15.4970  -26.5750 N   0  0  0  0  0  0  0  0  0  0  0  0
  -20.0610   16.3600  -26.6080 H   0  0  0  0  0  0  0  0  0  0  0  0
  -20.6080   14.6770  -27.6980 C   0  0  0  0  0  0  0  0  0  0  0  0
  -21.2170   13.6150  -27.7920 O   0  0  0  0  0  0  0  0  0  0  0  0
  -19.7650   15.2510  -28.8100 C   0  0  0  0  0  2  0  0  0  0  0  0
  -20.4330   16.4340  -29.3730 N   0  0  0  0  0  0  0  0  0  0  0  0
  -21.4620   16.2350  -30.2630 N   0  0  0  0  0  0  0  0  0  0  0  0
  -21.7070   15.2750  -30.4850 H   0  0  0  0  0  0  0  0  0  0  0  0
  -22.1430   17.2790  -30.8350 C   0  0  0  0  0  0  0  0  0  0  0  0
  -23.0670   17.1360  -31.6320 O   0  0  0  0  0  0  0  0  0  0  0  0
  -21.7080   18.6340  -30.4450 C   0  0  0  0  0  3  0  0  0  0  0  0
  -20.7080   18.8120  -29.5830 C   0  0  0  0  0  3  0  0  0  0  0  0
  -19.9930   17.6660  -28.9810 C   0  0  0  0  0  0  0  0  0  0  0  0
  -19.0770   17.8850  -28.1890 O   0  0  0  0  0  0  0  0  0  0  0  0
  -20.6770   17.4620  -24.5240 N   0  0  0  0  0  0  0  0  0  0  0  0
  -19.7980   17.2770  -24.0450 H   0  0  0  0  0  0  0  0  0  0  0  0
  -20.8550   18.6610  -25.1990 C   0  0  0  0  0  0  0  0  0  0  0  0
  -21.8550   18.9740  -25.8370 O   0  0  0  0  0  0  0  0  0  0  0  0
  -19.6720   19.5560  -25.0690 C   0  0  0  0  0  3  0  0  0  0  0  0
  -19.4490   20.5110  -25.9820 C   0  0  0  0  0  3  0  0  0  0  0  0
  -18.3290   21.4070  -25.9200 C   0  0  0  0  0  0  0  0  0  0  0  0
  -18.3860   22.6080  -25.0450 C   0  0  0  0  0  0  0  0  0  0  0  0
  -19.3650   22.8780  -24.3550 O   0  0  0  0  0  0  0  0  0  0  0  0
  -17.2390   23.3760  -25.0890 N   0  0  0  0  0  0  0  0  0  0  0  0
  -17.1930   24.2160  -24.5200 H   0  0  0  0  0  0  0  0  0  0  0  0
  -16.1610   23.0410  -25.8770 C   0  0  0  0  0  3  0  0  0  0  0  0
  -16.0990   22.0000  -26.6400 N   0  0  0  0  0  0  0  0  0  0  0  0
  -17.2140   21.1970  -26.6360 C   0  0  0  0  0  3  0  0  0  0  0  0
  2  1  2  0  0  0  0
  3  2  1  0  0  0  0
  4  3  1  0  0  0  0
  5 10  1  6  0  0  0
  5  6  1  0  0  0  0
  5  4  1  0  0  0  0
  6 24  1  1  0  0  0
  6  7  1  0  0  0  0
  7  3  2  0  0  0  0
  7  8  1  0  0  0  0
  8  9  2  0  0  0  0
  9  1  1  0  0  0  0
 11 10  1  0  0  0  0
 12 10  1  0  0  0  0
 13 12  2  0  0  0  0
 14 12  1  0  0  0  0
 15 22  1  0  0  0  0
 15 14  1  0  0  0  0
 16 15  1  0  0  0  0
 17 16  1  0  0  0  0
 18 20  1  0  0  0  0
 18 16  1  0  0  0  0
 19 18  2  0  0  0  0
 20 21  2  0  0  0  0
 21 22  1  0  0  0  0
 22 23  2  0  0  0  0
 24 25  1  0  0  0  0
 26 28  1  0  0  0  0
 26 24  1  0  0  0  0
 27 26  2  0  0  0  0
 29 30  1  0  0  0  0
 29 28  2  0  0  0  0
 30 31  1  0  0  0  0
 31 32  2  0  0  0  0
 33 31  1  0  0  0  0
 33 34  1  0  0  0  0
 35 33  1  0  0  0  0
 36 37  1  0  0  0  0
 36 35  2  0  0  0  0
 37 30  2  0  0  0  0
M  END
>  <VSCORE>
 -9.2

>  <MODEL>
1

>  <TORSDO>
F 6

$$$$
72
 OpenBabel08042114533D

 36 39  0  0  1  0  0  0  0  0999 V2000
  -17.2910   21.9550  -27.4960 C   0  0  0  0  0  3  0  0  0  0  0  0
  -17.4870   20.8760  -26.6320 C   0  0  0  0  0  3  0  0  0  0  0  0
  -18.6700   20.1640  -26.7280 C   0  0  0  0  0  0  0  0  0  0  0  0
  -19.0840   18.9590  -25.9400 C   0  0  0  0  0  2  0  0  0  0  0  0
  -20.6010   18.9410  -26.2100 C   0  0  1  0  0  3  0  0  0  0  0  0
  -20.8100   19.5610  -27.6130 C   0  0  1  0  0  3  0  0  0  0  0  0
  -19.6430   20.5020  -27.6780 C   0  0  0  0  0  0  0  0  0  0  0  0
  -19.4520   21.5670  -28.5430 C   0  0  0  0  0  3  0  0  0  0  0  0
  -18.2670   22.2980  -28.4450 C   0  0  0  0  0  3  0  0  0  0  0  0
  -21.1720   17.6330  -26.0450 N   0  0  0  0  0  0  0  0  0  0  0  0
  -20.6400   16.8280  -26.3750 H   0  0  0  0  0  0  0  0  0  0  0  0
  -22.4110   17.4090  -25.4570 C   0  0  0  0  0  0  0  0  0  0  0  0
  -23.1500   18.2890  -25.0180 O   0  0  0  0  0  0  0  0  0  0  0  0
  -22.7910   15.9420  -25.4040 C   0  0  0  0  0  2  0  0  0  0  0  0
  -21.9150   15.2440  -24.4260 C   0  0  0  0  0  0  0  0  0  0  0  0
  -20.9110   14.4280  -24.7810 C   0  0  0  0  0  3  0  0  0  0  0  0
  -20.1310   13.8070  -23.8360 N   0  0  0  0  0  0  0  0  0  0  0  0
  -19.3880   13.2000  -24.1680 H   0  0  0  0  0  0  0  0  0  0  0  0
  -20.3070   13.9650  -22.4720 C   0  0  0  0  0  0  0  0  0  0  0  0
  -19.6170   13.4150  -21.6180 O   0  0  0  0  0  0  0  0  0  0  0  0
  -21.4210   14.8720  -22.0710 C   0  0  0  0  0  3  0  0  0  0  0  0
  -22.1670   15.4630  -23.0160 C   0  0  0  0  0  3  0  0  0  0  0  0
  -20.7700   18.6010  -28.6850 N   0  0  0  0  0  0  0  0  0  0  0  0
  -19.8700   18.3950  -29.1140 H   0  0  0  0  0  0  0  0  0  0  0  0
  -21.8960   17.9410  -29.1650 C   0  0  0  0  0  0  0  0  0  0  0  0
  -23.0380   18.0940  -28.7400 O   0  0  0  0  0  0  0  0  0  0  0  0
  -21.5480   16.9990  -30.2900 C   0  0  0  0  0  2  0  0  0  0  0  0
  -21.7240   15.6100  -29.8420 N   0  0  0  0  0  0  0  0  0  0  0  0
  -20.7840   15.0810  -28.9890 N   0  0  0  0  0  0  0  0  0  0  0  0
  -20.0130   15.6810  -28.7130 H   0  0  0  0  0  0  0  0  0  0  0  0
  -20.8700   13.7950  -28.5170 C   0  0  0  0  0  0  0  0  0  0  0  0
  -20.0490   13.2920  -27.7550 O   0  0  0  0  0  0  0  0  0  0  0  0
  -22.0280   13.0070  -28.9780 C   0  0  0  0  0  3  0  0  0  0  0  0
  -22.9310   13.5320  -29.8050 C   0  0  0  0  0  3  0  0  0  0  0  0
  -22.8130   14.9220  -30.2960 C   0  0  0  0  0  0  0  0  0  0  0  0
  -23.6730   15.3590  -31.0590 O   0  0  0  0  0  0  0  0  0  0  0  0
  1  2  1  0  0  0  0
  3  2  2  0  0  0  0
  3  4  1  0  0  0  0
  5 10  1  6  0  0  0
  5  4  1  0  0  0  0
  6 23  1  6  0  0  0
  6  5  1  0  0  0  0
  7  6  1  0  0  0  0
  7  3  1  0  0  0  0
  8  9  1  0  0  0  0
  8  7  2  0  0  0  0
  9  1  2  0  0  0  0
 10 12  1  0  0  0  0
 11 10  1  0  0  0  0
 12 14  1  0  0  0  0
 12 13  2  0  0  0  0
 14 15  1  0  0  0  0
 15 22  1  0  0  0  0
 16 15  2  0  0  0  0
 16 17  1  0  0  0  0
 17 19  1  0  0  0  0
 18 17  1  0  0  0  0
 19 21  1  0  0  0  0
 19 20  2  0  0  0  0
 22 21  2  0  0  0  0
 24 23  1  0  0  0  0
 25 26  2  0  0  0  0
 25 23  1  0  0  0  0
 27 28  1  0  0  0  0
 27 25  1  0  0  0  0
 28 29  1  0  0  0  0
 29 30  1  0  0  0  0
 29 31  1  0  0  0  0
 31 32  2  0  0  0  0
 33 31  1  0  0  0  0
 34 33  2  0  0  0  0
 35 28  1  0  0  0  0
 35 34  1  0  0  0  0
 36 35  2  0  0  0  0
M  END
>  <VSCORE>
 -8.8

>  <MODEL>
1

>  <TORSDO>
F 6

$$$$
73
 OpenBabel08042114533D

 36 39  0  0  1  0  0  0  0  0999 V2000
  -21.7310   15.2060  -20.9330 C   0  0  0  0  0  3  0  0  0  0  0  0
  -21.5990   16.3920  -21.6580 C   0  0  0  0  0  3  0  0  0  0  0  0
  -21.1520   16.3160  -22.9660 C   0  0  0  0  0  0  0  0  0  0  0  0
  -20.9680   17.4380  -23.9410 C   0  0  0  0  0  2  0  0  0  0  0  0
  -20.0710   16.7630  -24.9970 C   0  0  1  0  0  3  0  0  0  0  0  0
  -20.4290   15.2570  -24.9860 C   0  0  1  0  0  3  0  0  0  0  0  0
  -20.8530   15.0810  -23.5580 C   0  0  0  0  0  0  0  0  0  0  0  0
  -20.9870   13.9000  -22.8460 C   0  0  0  0  0  3  0  0  0  0  0  0
  -21.4260   13.9690  -21.5220 C   0  0  0  0  0  3  0  0  0  0  0  0
  -20.1730   17.3910  -26.2850 N   0  0  0  0  0  0  0  0  0  0  0  0
  -20.7930   16.9740  -26.9780 H   0  0  0  0  0  0  0  0  0  0  0  0
  -19.4700   18.5380  -26.6340 C   0  0  0  0  0  0  0  0  0  0  0  0
  -18.6910   19.1430  -25.9040 O   0  0  0  0  0  0  0  0  0  0  0  0
  -19.7620   18.9720  -28.0300 C   0  0  0  0  0  3  0  0  0  0  0  0
  -20.1690   20.2280  -28.2680 C   0  0  0  0  0  3  0  0  0  0  0  0
  -20.4770   20.7670  -29.6040 C   0  0  0  0  0  0  0  0  0  0  0  0
  -21.0590   22.0160  -29.7540 C   0  0  0  0  0  3  0  0  0  0  0  0
  -21.3650   22.5690  -30.9490 N   0  0  0  0  0  0  0  0  0  0  0  0
  -21.0730   21.8340  -32.0440 C   0  0  0  0  0  3  0  0  0  0  0  0
  -20.4920   20.5760  -32.0020 C   0  0  0  0  0  0  0  0  0  0  0  0
  -20.1990   19.8240  -33.2510 C   0  0  0  0  0  1  0  0  0  0  0  0
  -20.1910   20.0400  -30.7550 C   0  0  0  0  0  3  0  0  0  0  0  0
  -21.4890   14.9050  -25.8940 N   0  0  0  0  0  0  0  0  0  0  0  0
  -22.4170   15.2870  -25.7230 H   0  0  0  0  0  0  0  0  0  0  0  0
  -21.3130   14.0690  -26.9920 C   0  0  0  0  0  0  0  0  0  0  0  0
  -20.2510   13.5420  -27.3130 O   0  0  0  0  0  0  0  0  0  0  0  0
  -22.5990   13.8800  -27.7560 C   0  0  0  0  0  2  0  0  0  0  0  0
  -22.6380   14.8120  -28.8920 N   0  0  0  0  0  0  0  0  0  0  0  0
  -22.7580   16.1550  -28.6240 N   0  0  0  0  0  0  0  0  0  0  0  0
  -22.8140   16.4330  -27.6490 H   0  0  0  0  0  0  0  0  0  0  0  0
  -22.8000   17.0970  -29.6210 C   0  0  0  0  0  0  0  0  0  0  0  0
  -22.9050   18.3030  -29.4160 O   0  0  0  0  0  0  0  0  0  0  0  0
  -22.7110   16.5890  -31.0030 C   0  0  0  0  0  3  0  0  0  0  0  0
  -22.5970   15.2840  -31.2490 C   0  0  0  0  0  3  0  0  0  0  0  0
  -22.5530   14.2920  -30.1530 C   0  0  0  0  0  0  0  0  0  0  0  0
  -22.4460   13.0990  -30.4330 O   0  0  0  0  0  0  0  0  0  0  0  0
  2  1  2  0  0  0  0
  3  2  1  0  0  0  0
  4  3  1  0  0  0  0
  5 10  1  6  0  0  0
  5  6  1  0  0  0  0
  5  4  1  0  0  0  0
  6 23  1  6  0  0  0
  6  7  1  0  0  0  0
  7  3  2  0  0  0  0
  7  8  1  0  0  0  0
  8  9  2  0  0  0  0
  9  1  1  0  0  0  0
 11 10  1  0  0  0  0
 12 10  1  0  0  0  0
 12 13  2  0  0  0  0
 14 12  1  0  0  0  0
 15 14  2  0  0  0  0
 16 15  1  0  0  0  0
 17 16  1  0  0  0  0
 18 17  2  0  0  0  0
 19 20  2  0  0  0  0
 19 18  1  0  0  0  0
 20 22  1  0  0  0  0
 21 20  1  0  0  0  0
 22 16  2  0  0  0  0
 23 24  1  0  0  0  0
 25 23  1  0  0  0  0
 26 25  2  0  0  0  0
 27 25  1  0  0  0  0
 28 29  1  0  0  0  0
 28 27  1  0  0  0  0
 29 30  1  0  0  0  0
 31 32  2  0  0  0  0
 31 29  1  0  0  0  0
 33 31  1  0  0  0  0
 34 33  2  0  0  0  0
 34 35  1  0  0  0  0
 35 28  1  0  0  0  0
 36 35  2  0  0  0  0
M  END
>  <VSCORE>
 -9.0

>  <MODEL>
1

>  <TORSDO>
F 6

$$$$
74
 OpenBabel08042114533D

 38 41  0  0  1  0  0  0  0  0999 V2000
  -21.8780   13.1700  -28.4300 C   0  0  0  0  0  3  0  0  0  0  0  0
  -22.2910   14.0830  -27.4580 C   0  0  0  0  0  3  0  0  0  0  0  0
  -21.6350   15.3000  -27.3780 C   0  0  0  0  0  0  0  0  0  0  0  0
  -21.8810   16.4080  -26.4010 C   0  0  0  0  0  2  0  0  0  0  0  0
  -21.1860   17.5810  -27.1160 C   0  0  2  0  0  3  0  0  0  0  0  0
  -20.0070   16.9680  -27.9100 C   0  0  1  0  0  3  0  0  0  0  0  0
  -20.5750   15.6140  -28.2400 C   0  0  0  0  0  0  0  0  0  0  0  0
  -20.1530   14.7050  -29.1990 C   0  0  0  0  0  3  0  0  0  0  0  0
  -20.8170   13.4790  -29.2940 C   0  0  0  0  0  3  0  0  0  0  0  0
  -20.7680   18.6110  -26.2060 N   0  0  0  0  0  0  0  0  0  0  0  0
  -20.4160   18.3350  -25.2900 H   0  0  0  0  0  0  0  0  0  0  0  0
  -20.8210   19.9660  -26.5120 C   0  0  0  0  0  0  0  0  0  0  0  0
  -21.2230   20.4320  -27.5760 O   0  0  0  0  0  0  0  0  0  0  0  0
  -20.3270   20.8510  -25.3830 C   0  0  0  0  0  2  0  0  0  0  0  0
  -18.9710   21.3630  -25.7190 C   0  0  0  0  0  0  0  0  0  0  0  0
  -18.6170   22.7510  -25.3040 C   0  0  0  0  0  0  0  0  0  0  0  0
  -19.4070   23.4710  -24.7010 O   0  0  0  0  0  0  0  0  0  0  0  0
  -17.3370   23.1300  -25.6620 N   0  0  0  0  0  0  0  0  0  0  0  0
  -17.0180   24.0630  -25.4160 H   0  0  0  0  0  0  0  0  0  0  0  0
  -16.4860   22.2890  -26.3380 C   0  0  0  0  0  3  0  0  0  0  0  0
  -16.7750   21.0850  -26.7040 N   0  0  0  0  0  0  0  0  0  0  0  0
  -18.0370   20.6560  -26.3740 C   0  0  0  0  0  3  0  0  0  0  0  0
  -19.6150   17.8120  -29.1160 C   0  0  0  0  0  2  0  0  0  0  0  0
  -20.7560   18.0430  -29.9390 N   0  0  0  0  0  0  0  0  0  0  0  0
  -21.4970   17.3350  -29.9590 H   0  0  0  0  0  0  0  0  0  0  0  0
  -20.9250   19.2080  -30.6860 C   0  0  0  0  0  0  0  0  0  0  0  0
  -20.1280   20.1410  -30.7180 O   0  0  0  0  0  0  0  0  0  0  0  0
  -22.1970   19.2120  -31.4580 C   0  0  0  0  0  3  0  0  0  0  0  0
  -23.3480   18.8770  -30.8580 C   0  0  0  0  0  3  0  0  0  0  0  0
  -24.6100   18.8590  -31.5430 C   0  0  0  0  0  0  0  0  0  0  0  0
  -25.0590   17.6260  -32.2380 C   0  0  0  0  0  0  0  0  0  0  0  0
  -24.3910   16.5970  -32.2570 O   0  0  0  0  0  0  0  0  0  0  0  0
  -26.2910   17.7560  -32.8520 N   0  0  0  0  0  0  0  0  0  0  0  0
  -26.6610   16.9490  -33.3470 H   0  0  0  0  0  0  0  0  0  0  0  0
  -27.0190   18.9270  -32.8140 C   0  0  0  0  0  0  0  0  0  0  0  0
  -26.6300   20.0060  -32.2080 N   0  0  0  0  0  0  0  0  0  0  0  0
  -28.3360   18.8970  -33.5340 C   0  0  0  0  0  1  0  0  0  0  0  0
  -25.4100   19.9330  -31.5790 C   0  0  0  0  0  3  0  0  0  0  0  0
  1  2  1  0  0  0  0
  2  3  2  0  0  0  0
  3  4  1  0  0  0  0
  5  4  1  0  0  0  0
  5 10  1  1  0  0  0
  6 23  1  6  0  0  0
  6  5  1  0  0  0  0
  7  6  1  0  0  0  0
  7  3  1  0  0  0  0
  8  7  2  0  0  0  0
  9  8  1  0  0  0  0
  9  1  2  0  0  0  0
 10 11  1  0  0  0  0
 12 10  1  0  0  0  0
 12 14  1  0  0  0  0
 13 12  2  0  0  0  0
 15 14  1  0  0  0  0
 15 16  1  0  0  0  0
 16 17  2  0  0  0  0
 18 19  1  0  0  0  0
 18 16  1  0  0  0  0
 20 18  1  0  0  0  0
 21 22  1  0  0  0  0
 21 20  2  0  0  0  0
 22 15  2  0  0  0  0
 24 23  1  0  0  0  0
 25 24  1  0  0  0  0
 26 24  1  0  0  0  0
 27 26  2  0  0  0  0
 28 29  2  0  0  0  0
 28 26  1  0  0  0  0
 30 29  1  0  0  0  0
 31 30  1  0  0  0  0
 32 31  2  0  0  0  0
 33 35  1  0  0  0  0
 33 31  1  0  0  0  0
 34 33  1  0  0  0  0
 35 36  2  0  0  0  0
 36 38  1  0  0  0  0
 37 35  1  0  0  0  0
 38 30  2  0  0  0  0
M  END
>  <VSCORE>
 -8.7

>  <MODEL>
1

>  <TORSDO>
F 7

$$$$
75
 OpenBabel08042114533D

 35 38  0  0  1  0  0  0  0  0999 V2000
  -21.7750   15.3580  -20.9550 C   0  0  0  0  0  3  0  0  0  0  0  0
  -21.6390   16.4860  -21.7640 C   0  0  0  0  0  3  0  0  0  0  0  0
  -21.1530   16.3180  -23.0500 C   0  0  0  0  0  0  0  0  0  0  0  0
  -20.9570   17.3650  -24.1030 C   0  0  0  0  0  2  0  0  0  0  0  0
  -20.0200   16.6270  -25.0780 C   0  0  1  0  0  3  0  0  0  0  0  0
  -20.3560   15.1200  -24.9620 C   0  0  1  0  0  3  0  0  0  0  0  0
  -20.8190   15.0470  -23.5360 C   0  0  0  0  0  0  0  0  0  0  0  0
  -20.9580   13.9220  -22.7400 C   0  0  0  0  0  3  0  0  0  0  0  0
  -21.4360   14.0840  -21.4390 C   0  0  0  0  0  3  0  0  0  0  0  0
  -20.0930   17.1530  -26.4130 N   0  0  0  0  0  0  0  0  0  0  0  0
  -20.6730   16.6610  -27.0900 H   0  0  0  0  0  0  0  0  0  0  0  0
  -19.4380   18.3180  -26.7890 C   0  0  0  0  0  0  0  0  0  0  0  0
  -18.7450   19.0100  -26.0520 O   0  0  0  0  0  0  0  0  0  0  0  0
  -19.6720   18.6550  -28.2210 C   0  0  0  0  0  3  0  0  0  0  0  0
  -20.3090   19.7870  -28.5470 C   0  0  0  0  0  3  0  0  0  0  0  0
  -20.5690   20.1740  -29.9060 C   0  0  0  0  0  0  0  0  0  0  0  0
  -20.8620   21.5940  -30.2300 C   0  0  0  0  0  0  0  0  0  0  0  0
  -20.8910   22.4760  -29.3770 O   0  0  0  0  0  0  0  0  0  0  0  0
  -21.0930   21.8160  -31.5760 N   0  0  0  0  0  0  0  0  0  0  0  0
  -21.3010   22.7610  -31.8840 H   0  0  0  0  0  0  0  0  0  0  0  0
  -21.0510   20.8010  -32.5030 C   0  0  0  0  0  3  0  0  0  0  0  0
  -20.7980   19.5630  -32.2340 N   0  0  0  0  0  0  0  0  0  0  0  0
  -20.5600   19.2820  -30.9090 C   0  0  0  0  0  3  0  0  0  0  0  0
  -21.3850   14.6820  -25.8690 N   0  0  0  0  0  0  0  0  0  0  0  0
  -22.3490   14.9380  -25.6650 H   0  0  0  0  0  0  0  0  0  0  0  0
  -21.1310   13.9290  -27.0110 C   0  0  0  0  0  0  0  0  0  0  0  0
  -20.0180   13.5540  -27.3750 O   0  0  0  0  0  0  0  0  0  0  0  0
  -22.3990   13.6170  -27.7630 C   0  0  0  0  0  2  0  0  0  0  0  0
  -22.5560   14.5630  -28.8780 N   0  0  0  0  0  0  0  0  0  0  0  0
  -22.7280   14.0530  -30.1650 C   0  0  0  0  0  0  0  0  0  0  0  0
  -22.7640   12.8620  -30.4710 O   0  0  0  0  0  0  0  0  0  0  0  0
  -22.8770   15.0770  -31.2430 C   0  0  0  0  0  3  0  0  0  0  0  0
  -22.8440   16.3800  -30.9400 C   0  0  0  0  0  3  0  0  0  0  0  0
  -22.6620   16.8190  -29.5830 C   0  0  0  0  0  3  0  0  0  0  0  0
  -22.5250   15.9140  -28.6070 C   0  0  0  0  0  3  0  0  0  0  0  0
  2  1  2  0  0  0  0
  3  2  1  0  0  0  0
  4  3  1  0  0  0  0
  5 10  1  6  0  0  0
  5  6  1  0  0  0  0
  5  4  1  0  0  0  0
  6 24  1  6  0  0  0
  6  7  1  0  0  0  0
  7  3  2  0  0  0  0
  7  8  1  0  0  0  0
  8  9  2  0  0  0  0
  9  1  1  0  0  0  0
 11 10  1  0  0  0  0
 12 10  1  0  0  0  0
 12 13  2  0  0  0  0
 14 12  1  0  0  0  0
 15 14  2  0  0  0  0
 16 15  1  0  0  0  0
 17 16  1  0  0  0  0
 17 18  2  0  0  0  0
 19 17  1  0  0  0  0
 20 19  1  0  0  0  0
 21 22  2  0  0  0  0
 21 19  1  0  0  0  0
 22 23  1  0  0  0  0
 23 16  2  0  0  0  0
 24 25  1  0  0  0  0
 26 24  1  0  0  0  0
 27 26  2  0  0  0  0
 28 26  1  0  0  0  0
 29 35  1  0  0  0  0
 29 28  1  0  0  0  0
 30 29  1  0  0  0  0
 31 30  2  0  0  0  0
 32 33  2  0  0  0  0
 32 30  1  0  0  0  0
 33 34  1  0  0  0  0
 34 35  2  0  0  0  0
M  END
>  <VSCORE>
 -8.7

>  <MODEL>
1

>  <TORSDO>
F 6

$$$$
76
 OpenBabel08042114533D

 35 38  0  0  1  0  0  0  0  0999 V2000
  -22.0970   15.1560  -20.7900 C   0  0  0  0  0  3  0  0  0  0  0  0
  -22.0610   16.3080  -21.5760 C   0  0  0  0  0  3  0  0  0  0  0  0
  -21.4580   16.2360  -22.8210 C   0  0  0  0  0  0  0  0  0  0  0  0
  -21.3330   17.3220  -23.8460 C   0  0  0  0  0  2  0  0  0  0  0  0
  -20.2280   16.7420  -24.7500 C   0  0  1  0  0  3  0  0  0  0  0  0
  -20.3550   15.2010  -24.6740 C   0  0  1  0  0  3  0  0  0  0  0  0
  -20.9100   15.0350  -23.2910 C   0  0  0  0  0  0  0  0  0  0  0  0
  -20.9480   13.8860  -22.5180 C   0  0  0  0  0  3  0  0  0  0  0  0
  -21.5430   13.9530  -21.2570 C   0  0  0  0  0  3  0  0  0  0  0  0
  -20.2720   17.2800  -26.0820 N   0  0  0  0  0  0  0  0  0  0  0  0
  -20.8810   16.8300  -26.7650 H   0  0  0  0  0  0  0  0  0  0  0  0
  -19.5290   18.3810  -26.4880 C   0  0  0  0  0  0  0  0  0  0  0  0
  -18.7570   19.0180  -25.7760 O   0  0  0  0  0  0  0  0  0  0  0  0
  -19.7650   18.7220  -27.9190 C   0  0  0  0  0  3  0  0  0  0  0  0
  -20.1770   19.9540  -28.2540 C   0  0  0  0  0  3  0  0  0  0  0  0
  -20.4330   20.4030  -29.6340 C   0  0  0  0  0  0  0  0  0  0  0  0
  -20.7410   21.7260  -29.9090 C   0  0  0  0  0  3  0  0  0  0  0  0
  -20.9860   22.2030  -31.1500 N   0  0  0  0  0  0  0  0  0  0  0  0
  -20.9200   21.3090  -32.1620 C   0  0  0  0  0  3  0  0  0  0  0  0
  -20.6210   19.9660  -31.9910 C   0  0  0  0  0  3  0  0  0  0  0  0
  -20.3740   19.5130  -30.7010 C   0  0  0  0  0  3  0  0  0  0  0  0
  -21.2370   14.6410  -25.6640 N   0  0  0  0  0  0  0  0  0  0  0  0
  -22.2060   14.4660  -25.4030 H   0  0  0  0  0  0  0  0  0  0  0  0
  -20.8370   14.3260  -26.9590 C   0  0  0  0  0  0  0  0  0  0  0  0
  -19.7030   14.4870  -27.4050 O   0  0  0  0  0  0  0  0  0  0  0  0
  -21.9740   13.7540  -27.7660 C   0  0  0  0  0  2  0  0  0  0  0  0
  -22.3240   14.6820  -28.8510 N   0  0  0  0  0  0  0  0  0  0  0  0
  -22.5330   16.0030  -28.5300 N   0  0  0  0  0  0  0  0  0  0  0  0
  -22.4350   16.2680  -27.5550 H   0  0  0  0  0  0  0  0  0  0  0  0
  -22.8610   16.9400  -29.4770 C   0  0  0  0  0  0  0  0  0  0  0  0
  -23.0540   18.1270  -29.2250 O   0  0  0  0  0  0  0  0  0  0  0  0
  -22.9790   16.4530  -30.8640 C   0  0  0  0  0  3  0  0  0  0  0  0
  -22.7740   15.1700  -31.1610 C   0  0  0  0  0  3  0  0  0  0  0  0
  -22.4210   14.1830  -30.1180 C   0  0  0  0  0  0  0  0  0  0  0  0
  -22.2420   13.0100  -30.4440 O   0  0  0  0  0  0  0  0  0  0  0  0
  2  1  2  0  0  0  0
  3  2  1  0  0  0  0
  4  3  1  0  0  0  0
  5 10  1  6  0  0  0
  5  6  1  0  0  0  0
  5  4  1  0  0  0  0
  6 22  1  6  0  0  0
  6  7  1  0  0  0  0
  7  3  2  0  0  0  0
  7  8  1  0  0  0  0
  8  9  2  0  0  0  0
  9  1  1  0  0  0  0
 11 10  1  0  0  0  0
 12 10  1  0  0  0  0
 12 13  2  0  0  0  0
 14 12  1  0  0  0  0
 15 14  2  0  0  0  0
 16 15  1  0  0  0  0
 17 16  1  0  0  0  0
 18 17  2  0  0  0  0
 19 20  2  0  0  0  0
 19 18  1  0  0  0  0
 20 21  1  0  0  0  0
 21 16  2  0  0  0  0
 22 23  1  0  0  0  0
 24 22  1  0  0  0  0
 25 24  2  0  0  0  0
 26 24  1  0  0  0  0
 27 28  1  0  0  0  0
 27 26  1  0  0  0  0
 28 29  1  0  0  0  0
 30 31  2  0  0  0  0
 30 28  1  0  0  0  0
 32 30  1  0  0  0  0
 33 32  2  0  0  0  0
 33 34  1  0  0  0  0
 34 27  1  0  0  0  0
 35 34  2  0  0  0  0
M  END
>  <VSCORE>
 -8.5

>  <MODEL>
1

>  <TORSDO>
F 6

$$$$
77
 OpenBabel08042114533D

 39 42  0  0  1  0  0  0  0  0999 V2000
  -20.8030   18.9700  -29.0650 C   0  0  1  0  0  3  0  0  0  0  0  0
  -21.8230   12.5710  -29.7580 C   0  0  0  0  0  3  0  0  0  0  0  0
  -20.7000   13.2730  -29.3220 C   0  0  0  0  0  3  0  0  0  0  0  0
  -20.7130   14.6750  -29.2550 C   0  0  0  0  0  0  0  0  0  0  0  0
  -21.8820   15.3760  -29.6350 C   0  0  0  0  0  0  0  0  0  0  0  0
  -21.8960   16.7790  -29.5680 C   0  0  0  0  0  3  0  0  0  0  0  0
  -20.7720   17.4800  -29.1310 C   0  0  0  0  0  0  0  0  0  0  0  0
  -19.6210   16.7910  -28.7570 C   0  0  0  0  0  3  0  0  0  0  0  0
  -23.0040   14.6530  -30.0720 C   0  0  0  0  0  3  0  0  0  0  0  0
  -19.5910   15.3990  -28.8170 C   0  0  0  0  0  3  0  0  0  0  0  0
  -22.9730   13.2600  -30.1330 C   0  0  0  0  0  3  0  0  0  0  0  0
  -21.6380   19.5490  -30.1380 N   0  0  0  0  0  0  0  0  0  0  0  0
  -22.6190   19.6020  -29.9490 H   0  0  0  0  0  0  0  0  0  0  0  0
  -21.0750   20.0150  -31.2930 C   0  0  0  0  0  0  0  0  0  0  0  0
  -19.8820   20.0160  -31.5780 O   0  0  0  0  0  0  0  0  0  0  0  0
  -22.1200   20.5500  -32.2100 C   0  0  0  0  0  3  0  0  0  0  0  0
  -23.3700   20.7320  -31.7670 C   0  0  0  0  0  3  0  0  0  0  0  0
  -24.4280   21.2430  -32.5960 C   0  0  0  0  0  0  0  0  0  0  0  0
  -25.5300   20.3460  -33.0280 C   0  0  0  0  0  0  0  0  0  0  0  0
  -25.5870   19.1630  -32.7060 O   0  0  0  0  0  0  0  0  0  0  0  0
  -26.4740   20.9750  -33.8190 N   0  0  0  0  0  0  0  0  0  0  0  0
  -27.2630   20.4330  -34.1600 H   0  0  0  0  0  0  0  0  0  0  0  0
  -26.3750   22.3040  -34.1600 C   0  0  0  0  0  3  0  0  0  0  0  0
  -25.4220   23.0930  -33.7900 N   0  0  0  0  0  0  0  0  0  0  0  0
  -24.4540   22.5230  -32.9990 C   0  0  0  0  0  3  0  0  0  0  0  0
  -21.2770   19.5340  -27.7040 C   0  0  0  0  0  2  0  0  0  0  0  0
  -20.3660   20.5260  -27.1930 N   0  0  0  0  0  0  0  0  0  0  0  0
  -20.4980   21.4960  -27.4700 H   0  0  0  0  0  0  0  0  0  0  0  0
  -19.3190   20.2180  -26.3420 C   0  0  0  0  0  0  0  0  0  0  0  0
  -19.0260   19.1060  -25.9170 O   0  0  0  0  0  0  0  0  0  0  0  0
  -18.5260   21.4010  -25.9600 C   0  0  0  0  0  0  0  0  0  0  0  0
  -19.1120   22.4430  -25.1620 C   0  0  0  0  0  3  0  0  0  0  0  0
  -18.3710   23.5110  -24.8260 C   0  0  0  0  0  0  0  0  0  0  0  0
  -17.0600   23.5970  -25.2510 N   0  0  0  0  0  0  0  0  0  0  0  0
  -16.5250   24.4170  -24.9820 H   0  0  0  0  0  0  0  0  0  0  0  0
  -16.4290   22.6340  -26.0230 C   0  0  0  0  0  0  0  0  0  0  0  0
  -15.2620   22.7110  -26.4000 O   0  0  0  0  0  0  0  0  0  0  0  0
  -18.8840   24.6480  -24.0000 C   0  0  0  0  0  1  0  0  0  0  0  0
  -17.2620   21.4520  -26.3900 C   0  0  0  0  0  3  0  0  0  0  0  0
  1 26  1  1  0  0  0
  2  3  1  0  0  0  0
  3  4  2  0  0  0  0
  4 10  1  0  0  0  0
  5  6  1  0  0  0  0
  5  4  1  0  0  0  0
  6  7  2  0  0  0  0
  7  1  1  0  0  0  0
  7  8  1  0  0  0  0
  9  5  2  0  0  0  0
 10  8  2  0  0  0  0
 11  9  1  0  0  0  0
 11  2  2  0  0  0  0
 12 13  1  0  0  0  0
 12  1  1  0  0  0  0
 14 12  1  0  0  0  0
 15 14  2  0  0  0  0
 16 17  2  0  0  0  0
 16 14  1  0  0  0  0
 18 17  1  0  0  0  0
 19 20  2  0  0  0  0
 19 18  1  0  0  0  0
 21 19  1  0  0  0  0
 22 21  1  0  0  0  0
 23 21  1  0  0  0  0
 23 24  2  0  0  0  0
 24 25  1  0  0  0  0
 25 18  2  0  0  0  0
 26 27  1  0  0  0  0
 27 29  1  0  0  0  0
 28 27  1  0  0  0  0
 29 31  1  0  0  0  0
 29 30  2  0  0  0  0
 31 32  1  0  0  0  0
 32 33  2  0  0  0  0
 33 38  1  0  0  0  0
 34 35  1  0  0  0  0
 34 33  1  0  0  0  0
 36 34  1  0  0  0  0
 37 36  2  0  0  0  0
 39 36  1  0  0  0  0
 39 31  2  0  0  0  0
M  END
>  <VSCORE>
 -9.9

>  <MODEL>
1

>  <TORSDO>
F 7

$$$$
78
 OpenBabel08042114533D

 40 43  0  0  1  0  0  0  0  0999 V2000
  -20.9520   15.2850  -28.5690 C   0  0  1  0  0  3  0  0  0  0  0  0
  -21.5440   15.0390  -22.0840 C   0  0  0  0  0  3  0  0  0  0  0  0
  -22.2760   15.7420  -23.0400 C   0  0  0  0  0  3  0  0  0  0  0  0
  -21.9590   15.6390  -24.4040 C   0  0  0  0  0  0  0  0  0  0  0  0
  -20.8860   14.8080  -24.8040 C   0  0  0  0  0  0  0  0  0  0  0  0
  -20.5690   14.7030  -26.1690 C   0  0  0  0  0  3  0  0  0  0  0  0
  -21.3020   15.4070  -27.1250 C   0  0  0  0  0  0  0  0  0  0  0  0
  -22.3580   16.2240  -26.7310 C   0  0  0  0  0  3  0  0  0  0  0  0
  -20.1600   14.1070  -23.8270 C   0  0  0  0  0  3  0  0  0  0  0  0
  -22.6860   16.3400  -25.3810 C   0  0  0  0  0  3  0  0  0  0  0  0
  -20.4880   14.2230  -22.4770 C   0  0  0  0  0  3  0  0  0  0  0  0
  -22.0250   15.8120  -29.4390 N   0  0  0  0  0  0  0  0  0  0  0  0
  -22.2880   16.7650  -29.2820 H   0  0  0  0  0  0  0  0  0  0  0  0
  -22.5790   15.0380  -30.4200 C   0  0  0  0  0  0  0  0  0  0  0  0
  -22.2830   13.8800  -30.6940 O   0  0  0  0  0  0  0  0  0  0  0  0
  -23.6290   15.7940  -31.1570 C   0  0  0  0  0  3  0  0  0  0  0  0
  -23.6340   17.1330  -31.1310 C   0  0  0  0  0  3  0  0  0  0  0  0
  -24.6170   17.9260  -31.8170 C   0  0  0  0  0  0  0  0  0  0  0  0
  -24.3430   19.3560  -32.1100 C   0  0  0  0  0  0  0  0  0  0  0  0
  -23.2960   19.9090  -31.7890 O   0  0  0  0  0  0  0  0  0  0  0  0
  -25.3770   19.9910  -32.7730 N   0  0  0  0  0  0  0  0  0  0  0  0
  -25.2720   20.9730  -33.0120 H   0  0  0  0  0  0  0  0  0  0  0  0
  -26.5370   19.3360  -33.1170 C   0  0  0  0  0  3  0  0  0  0  0  0
  -26.7870   18.0940  -32.8680 N   0  0  0  0  0  0  0  0  0  0  0  0
  -25.7930   17.4110  -32.2100 C   0  0  0  0  0  3  0  0  0  0  0  0
  -19.6160   15.9630  -28.9580 C   0  0  0  0  0  2  0  0  0  0  0  0
  -19.5240   17.2980  -28.4270 N   0  0  0  0  0  0  0  0  0  0  0  0
  -19.0560   17.4240  -27.5320 H   0  0  0  0  0  0  0  0  0  0  0  0
  -20.0130   18.4020  -29.1110 C   0  0  0  0  0  0  0  0  0  0  0  0
  -20.5590   18.3710  -30.2080 O   0  0  0  0  0  0  0  0  0  0  0  0
  -19.7940   19.6680  -28.3570 C   0  0  0  0  0  3  0  0  0  0  0  0
  -18.9540   19.6910  -27.3140 C   0  0  0  0  0  3  0  0  0  0  0  0
  -18.6960   20.8750  -26.5430 C   0  0  0  0  0  0  0  0  0  0  0  0
  -17.4090   21.6010  -26.7050 C   0  0  0  0  0  0  0  0  0  0  0  0
  -16.5350   21.2320  -27.4820 O   0  0  0  0  0  0  0  0  0  0  0  0
  -17.3020   22.7190  -25.8990 N   0  0  0  0  0  0  0  0  0  0  0  0
  -16.4530   23.2730  -25.9460 H   0  0  0  0  0  0  0  0  0  0  0  0
  -18.3060   23.1010  -25.0390 C   0  0  0  0  0  3  0  0  0  0  0  0
  -19.4290   22.4790  -24.8900 N   0  0  0  0  0  0  0  0  0  0  0  0
  -19.5910   21.3580  -25.6670 C   0  0  0  0  0  3  0  0  0  0  0  0
  1 26  1  1  0  0  0
  1  7  1  0  0  0  0
  3  2  2  0  0  0  0
  4  3  1  0  0  0  0
  5  4  1  0  0  0  0
  5  9  1  0  0  0  0
  6  5  2  0  0  0  0
  7  8  2  0  0  0  0
  7  6  1  0  0  0  0
  8 10  1  0  0  0  0
  9 11  2  0  0  0  0
 10  4  2  0  0  0  0
 11  2  1  0  0  0  0
 12 13  1  0  0  0  0
 12  1  1  0  0  0  0
 14 12  1  0  0  0  0
 15 14  2  0  0  0  0
 16 17  2  0  0  0  0
 16 14  1  0  0  0  0
 18 17  1  0  0  0  0
 19 18  1  0  0  0  0
 19 20  2  0  0  0  0
 21 19  1  0  0  0  0
 22 21  1  0  0  0  0
 23 24  2  0  0  0  0
 23 21  1  0  0  0  0
 24 25  1  0  0  0  0
 25 18  2  0  0  0  0
 26 27  1  0  0  0  0
 27 28  1  0  0  0  0
 29 27  1  0  0  0  0
 29 31  1  0  0  0  0
 30 29  2  0  0  0  0
 31 32  2  0  0  0  0
 32 33  1  0  0  0  0
 33 40  2  0  0  0  0
 34 33  1  0  0  0  0
 34 36  1  0  0  0  0
 35 34  2  0  0  0  0
 36 38  1  0  0  0  0
 37 36  1  0  0  0  0
 38 39  2  0  0  0  0
 40 39  1  0  0  0  0
M  END
>  <VSCORE>
 -9.3

>  <MODEL>
1

>  <TORSDO>
F 8

$$$$
79
 OpenBabel08042114533D

 39 42  0  0  1  0  0  0  0  0999 V2000
  -20.2630   19.0240  -29.3700 C   0  0  1  0  0  3  0  0  0  0  0  0
  -21.9900   12.7480  -29.6800 C   0  0  0  0  0  3  0  0  0  0  0  0
  -20.8200   13.3490  -29.2180 C   0  0  0  0  0  3  0  0  0  0  0  0
  -20.6710   14.7450  -29.2510 C   0  0  0  0  0  0  0  0  0  0  0  0
  -21.7240   15.5420  -29.7590 C   0  0  0  0  0  0  0  0  0  0  0  0
  -21.5750   16.9390  -29.7910 C   0  0  0  0  0  3  0  0  0  0  0  0
  -20.4050   17.5400  -29.3280 C   0  0  0  0  0  0  0  0  0  0  0  0
  -19.3680   16.7560  -28.8290 C   0  0  0  0  0  3  0  0  0  0  0  0
  -22.8950   14.9190  -30.2190 C   0  0  0  0  0  3  0  0  0  0  0  0
  -19.4990   15.3680  -28.7890 C   0  0  0  0  0  3  0  0  0  0  0  0
  -23.0260   13.5310  -30.1800 C   0  0  0  0  0  3  0  0  0  0  0  0
  -21.4370   19.6690  -29.9950 N   0  0  0  0  0  0  0  0  0  0  0  0
  -22.3110   19.1970  -29.8760 H   0  0  0  0  0  0  0  0  0  0  0  0
  -21.3170   20.8610  -30.6530 C   0  0  0  0  0  0  0  0  0  0  0  0
  -20.2890   21.5130  -30.8060 O   0  0  0  0  0  0  0  0  0  0  0  0
  -22.6350   21.3030  -31.1860 C   0  0  0  0  0  3  0  0  0  0  0  0
  -22.9620   21.0510  -32.4590 C   0  0  0  0  0  3  0  0  0  0  0  0
  -24.2150   21.4480  -33.0400 C   0  0  0  0  0  0  0  0  0  0  0  0
  -24.2600   22.5750  -34.0070 C   0  0  0  0  0  0  0  0  0  0  0  0
  -23.2580   23.1980  -34.3460 O   0  0  0  0  0  0  0  0  0  0  0  0
  -25.5300   22.8440  -34.4820 N   0  0  0  0  0  0  0  0  0  0  0  0
  -25.6520   23.6000  -35.1490 H   0  0  0  0  0  0  0  0  0  0  0  0
  -26.6310   22.1220  -34.0780 C   0  0  0  0  0  3  0  0  0  0  0  0
  -26.6040   21.1410  -33.2380 N   0  0  0  0  0  0  0  0  0  0  0  0
  -25.3650   20.8280  -32.7330 C   0  0  0  0  0  3  0  0  0  0  0  0
  -20.0110   19.6750  -27.9880 C   0  0  0  0  0  2  0  0  0  0  0  0
  -20.7260   18.9920  -26.9410 N   0  0  0  0  0  0  0  0  0  0  0  0
  -21.7180   18.8050  -27.0740 H   0  0  0  0  0  0  0  0  0  0  0  0
  -20.1280   18.5760  -25.7590 C   0  0  0  0  0  0  0  0  0  0  0  0
  -18.9430   18.7380  -25.4730 O   0  0  0  0  0  0  0  0  0  0  0  0
  -21.0940   17.8840  -24.8160 C   0  0  0  0  0  2  0  0  0  0  0  0
  -21.2580   16.4660  -25.2370 C   0  0  0  0  0  0  0  0  0  0  0  0
  -20.2770   15.4040  -24.8860 C   0  0  0  0  0  0  0  0  0  0  0  0
  -20.7060   14.2210  -25.4370 O   0  0  0  0  0  0  0  0  0  0  0  0
  -21.8920   14.5200  -26.0700 N   0  0  0  0  0  0  0  0  0  0  0  0
  -22.3650   13.8530  -26.6610 H   0  0  0  0  0  0  0  0  0  0  0  0
  -19.2640   15.5580  -24.2260 O   0  0  0  0  0  0  0  0  0  0  0  0
  -22.1930   15.8390  -25.9600 C   0  0  0  0  0  0  0  0  0  0  0  0
  -23.4090   16.3950  -26.6060 C   0  0  0  0  0  1  0  0  0  0  0  0
  1  7  1  0  0  0  0
  1 26  1  1  0  0  0
  2  3  1  0  0  0  0
  4  3  2  0  0  0  0
  4 10  1  0  0  0  0
  5  4  1  0  0  0  0
  6  5  1  0  0  0  0
  6  7  2  0  0  0  0
  7  8  1  0  0  0  0
  8 10  2  0  0  0  0
  9 11  1  0  0  0  0
  9  5  2  0  0  0  0
 11  2  2  0  0  0  0
 12 13  1  0  0  0  0
 12  1  1  0  0  0  0
 14 12  1  0  0  0  0
 15 14  2  0  0  0  0
 16 14  1  0  0  0  0
 17 16  2  0  0  0  0
 18 25  2  0  0  0  0
 18 17  1  0  0  0  0
 19 18  1  0  0  0  0
 20 19  2  0  0  0  0
 21 23  1  0  0  0  0
 21 19  1  0  0  0  0
 22 21  1  0  0  0  0
 23 24  2  0  0  0  0
 24 25  1  0  0  0  0
 26 27  1  0  0  0  0
 27 29  1  0  0  0  0
 28 27  1  0  0  0  0
 29 30  2  0  0  0  0
 29 31  1  0  0  0  0
 32 33  1  0  0  0  0
 32 31  1  0  0  0  0
 33 37  2  0  0  0  0
 34 33  1  0  0  0  0
 35 38  1  0  0  0  0
 35 34  1  0  0  0  0
 36 35  1  0  0  0  0
 38 32  2  0  0  0  0
 39 38  1  0  0  0  0
M  END
>  <VSCORE>
 -8.6

>  <MODEL>
1

>  <TORSDO>
F 8

$$$$
7
 OpenBabel08042114533D

 39 42  0  0  1  0  0  0  0  0999 V2000
  -20.2760   18.8160  -29.3920 C   0  0  1  0  0  3  0  0  0  0  0  0
  -22.1200   12.5710  -29.6770 C   0  0  0  0  0  3  0  0  0  0  0  0
  -20.9270   13.1510  -29.2420 C   0  0  0  0  0  3  0  0  0  0  0  0
  -20.7550   14.5440  -29.2740 C   0  0  0  0  0  0  0  0  0  0  0  0
  -21.8070   15.3600  -29.7540 C   0  0  0  0  0  0  0  0  0  0  0  0
  -21.6340   16.7540  -29.7870 C   0  0  0  0  0  3  0  0  0  0  0  0
  -20.4420   17.3340  -29.3510 C   0  0  0  0  0  0  0  0  0  0  0  0
  -19.4090   16.5320  -28.8790 C   0  0  0  0  0  3  0  0  0  0  0  0
  -23.0000   14.7600  -30.1880 C   0  0  0  0  0  3  0  0  0  0  0  0
  -19.5620   15.1450  -28.8400 C   0  0  0  0  0  3  0  0  0  0  0  0
  -23.1540   13.3740  -30.1490 C   0  0  0  0  0  3  0  0  0  0  0  0
  -20.8560   19.3990  -30.6200 N   0  0  0  0  0  0  0  0  0  0  0  0
  -21.4970   18.8520  -31.1610 H   0  0  0  0  0  0  0  0  0  0  0  0
  -20.5420   20.6620  -31.0380 C   0  0  0  0  0  0  0  0  0  0  0  0
  -19.7750   21.4450  -30.4790 O   0  0  0  0  0  0  0  0  0  0  0  0
  -21.2630   21.0240  -32.3220 C   0  0  0  0  0  2  0  0  0  0  0  0
  -22.5990   21.5880  -31.9920 C   0  0  0  0  0  0  0  0  0  0  0  0
  -22.8020   23.0170  -31.6290 C   0  0  0  0  0  0  0  0  0  0  0  0
  -24.1370   23.2080  -31.3620 O   0  0  0  0  0  0  0  0  0  0  0  0
  -24.7320   21.9850  -31.5710 N   0  0  0  0  0  0  0  0  0  0  0  0
  -25.6960   21.8130  -31.3320 H   0  0  0  0  0  0  0  0  0  0  0  0
  -21.9330   23.8690  -31.5730 O   0  0  0  0  0  0  0  0  0  0  0  0
  -23.8190   21.0440  -31.9210 C   0  0  0  0  0  0  0  0  0  0  0  0
  -24.2330   19.6350  -32.1520 C   0  0  0  0  0  1  0  0  0  0  0  0
  -20.8630   19.5530  -28.1630 C   0  0  0  0  0  2  0  0  0  0  0  0
  -20.8160   18.7330  -26.9800 N   0  0  0  0  0  0  0  0  0  0  0  0
  -21.6030   18.1140  -26.7980 H   0  0  0  0  0  0  0  0  0  0  0  0
  -19.7270   18.7370  -26.1190 C   0  0  0  0  0  0  0  0  0  0  0  0
  -18.7150   19.4130  -26.2610 O   0  0  0  0  0  0  0  0  0  0  0  0
  -19.9170   17.8040  -24.9750 C   0  0  0  0  0  3  0  0  0  0  0  0
  -20.2850   16.5350  -25.1970 C   0  0  0  0  0  3  0  0  0  0  0  0
  -20.4870   15.5830  -24.1420 C   0  0  0  0  0  0  0  0  0  0  0  0
  -21.7980   15.5120  -23.4460 C   0  0  0  0  0  0  0  0  0  0  0  0
  -22.7410   16.2430  -23.7350 O   0  0  0  0  0  0  0  0  0  0  0  0
  -21.8450   14.5510  -22.4530 N   0  0  0  0  0  0  0  0  0  0  0  0
  -22.7060   14.4360  -21.9270 H   0  0  0  0  0  0  0  0  0  0  0  0
  -20.7650   13.7490  -22.1590 C   0  0  0  0  0  3  0  0  0  0  0  0
  -19.6210   13.8000  -22.7560 N   0  0  0  0  0  0  0  0  0  0  0  0
  -19.5170   14.7400  -23.7540 C   0  0  0  0  0  3  0  0  0  0  0  0
  1  7  1  0  0  0  0
  1 25  1  1  0  0  0
  2  3  1  0  0  0  0
  4  3  2  0  0  0  0
  4 10  1  0  0  0  0
  5  4  1  0  0  0  0
  6  5  1  0  0  0  0
  6  7  2  0  0  0  0
  7  8  1  0  0  0  0
  8 10  2  0  0  0  0
  9 11  1  0  0  0  0
  9  5  2  0  0  0  0
 11  2  2  0  0  0  0
 12  1  1  0  0  0  0
 13 12  1  0  0  0  0
 14 12  1  0  0  0  0
 14 15  2  0  0  0  0
 16 17  1  0  0  0  0
 16 14  1  0  0  0  0
 17 23  2  0  0  0  0
 17 18  1  0  0  0  0
 18 22  2  0  0  0  0
 18 19  1  0  0  0  0
 20 19  1  0  0  0  0
 20 21  1  0  0  0  0
 23 20  1  0  0  0  0
 24 23  1  0  0  0  0
 25 26  1  0  0  0  0
 26 27  1  0  0  0  0
 26 28  1  0  0  0  0
 28 30  1  0  0  0  0
 29 28  2  0  0  0  0
 31 30  2  0  0  0  0
 31 32  1  0  0  0  0
 32 39  2  0  0  0  0
 32 33  1  0  0  0  0
 33 35  1  0  0  0  0
 34 33  2  0  0  0  0
 35 37  1  0  0  0  0
 35 36  1  0  0  0  0
 38 37  2  0  0  0  0
 39 38  1  0  0  0  0
M  END
>  <VSCORE>
 -9.0

>  <MODEL>
1

>  <TORSDO>
F 8

$$$$
80
 OpenBabel08042114533D

 37 40  0  0  1  0  0  0  0  0999 V2000
  -23.3310   14.9560  -30.7630 C   0  0  0  0  0  3  0  0  0  0  0  0
  -22.9500   14.0280  -29.7930 C   0  0  0  0  0  3  0  0  0  0  0  0
  -21.9350   14.3740  -28.9150 C   0  0  0  0  0  0  0  0  0  0  0  0
  -21.3390   13.5290  -27.8320 C   0  0  0  0  0  2  0  0  0  0  0  0
  -20.5880   14.5800  -26.9900 C   0  0  1  0  0  3  0  0  0  0  0  0
  -20.2010   15.7170  -27.9710 C   0  0  1  0  0  3  0  0  0  0  0  0
  -21.2950   15.6170  -28.9980 C   0  0  0  0  0  0  0  0  0  0  0  0
  -21.6580   16.5350  -29.9710 C   0  0  0  0  0  3  0  0  0  0  0  0
  -22.6890   16.2000  -30.8530 C   0  0  0  0  0  3  0  0  0  0  0  0
  -21.4220   15.0410  -25.8990 N   0  0  0  0  0  0  0  0  0  0  0  0
  -22.3120   15.4840  -26.1260 H   0  0  0  0  0  0  0  0  0  0  0  0
  -21.0750   14.9120  -24.5570 C   0  0  0  0  0  0  0  0  0  0  0  0
  -20.0370   14.4000  -24.1460 O   0  0  0  0  0  0  0  0  0  0  0  0
  -22.1340   15.4840  -23.6500 C   0  0  0  0  0  2  0  0  0  0  0  0
  -21.5840   16.6300  -22.9100 N   0  0  0  0  0  0  0  0  0  0  0  0
  -21.3060   17.8260  -23.5760 C   0  0  0  0  0  0  0  0  0  0  0  0
  -21.4870   18.0240  -24.7800 O   0  0  0  0  0  0  0  0  0  0  0  0
  -20.7860   18.8300  -22.7480 N   0  0  0  0  0  0  0  0  0  0  0  0
  -20.5710   19.7190  -23.1920 H   0  0  0  0  0  0  0  0  0  0  0  0
  -20.5370   18.7380  -21.3880 C   0  0  0  0  0  0  0  0  0  0  0  0
  -20.0790   19.6480  -20.7020 O   0  0  0  0  0  0  0  0  0  0  0  0
  -20.8670   17.4300  -20.7880 C   0  0  0  0  0  3  0  0  0  0  0  0
  -21.3630   16.4640  -21.5640 C   0  0  0  0  0  3  0  0  0  0  0  0
  -20.0910   17.0070  -27.3490 N   0  0  0  0  0  0  0  0  0  0  0  0
  -20.5500   17.1430  -26.4490 H   0  0  0  0  0  0  0  0  0  0  0  0
  -19.3580   18.0420  -27.9110 C   0  0  0  0  0  0  0  0  0  0  0  0
  -18.7390   17.9790  -28.9680 O   0  0  0  0  0  0  0  0  0  0  0  0
  -19.3950   19.2730  -27.0740 C   0  0  0  0  0  3  0  0  0  0  0  0
  -18.3630   20.1270  -27.0910 C   0  0  0  0  0  3  0  0  0  0  0  0
  -18.3330   21.3310  -26.3090 C   0  0  0  0  0  0  0  0  0  0  0  0
  -17.1400   22.2170  -26.3600 C   0  0  0  0  0  0  0  0  0  0  0  0
  -16.1580   21.9670  -27.0530 O   0  0  0  0  0  0  0  0  0  0  0  0
  -17.2510   23.3370  -25.5570 N   0  0  0  0  0  0  0  0  0  0  0  0
  -16.4790   23.9980  -25.5330 H   0  0  0  0  0  0  0  0  0  0  0  0
  -18.3690   23.5830  -24.7940 C   0  0  0  0  0  3  0  0  0  0  0  0
  -19.4110   22.8210  -24.7420 N   0  0  0  0  0  0  0  0  0  0  0  0
  -19.3560   21.6910  -25.5210 C   0  0  0  0  0  3  0  0  0  0  0  0
  1  2  1  0  0  0  0
  2  3  2  0  0  0  0
  3  4  1  0  0  0  0
  4  5  1  0  0  0  0
  5 10  1  1  0  0  0
  6 24  1  1  0  0  0
  6  5  1  0  0  0  0
  7  3  1  0  0  0  0
  7  6  1  0  0  0  0
  8  7  2  0  0  0  0
  9  1  2  0  0  0  0
  9  8  1  0  0  0  0
 10 12  1  0  0  0  0
 11 10  1  0  0  0  0
 12 13  2  0  0  0  0
 12 14  1  0  0  0  0
 14 15  1  0  0  0  0
 15 23  1  0  0  0  0
 16 15  1  0  0  0  0
 16 18  1  0  0  0  0
 17 16  2  0  0  0  0
 18 20  1  0  0  0  0
 19 18  1  0  0  0  0
 20 22  1  0  0  0  0
 20 21  2  0  0  0  0
 23 22  2  0  0  0  0
 24 25  1  0  0  0  0
 26 24  1  0  0  0  0
 26 28  1  0  0  0  0
 27 26  2  0  0  0  0
 29 28  2  0  0  0  0
 29 30  1  0  0  0  0
 30 37  2  0  0  0  0
 31 30  1  0  0  0  0
 31 33  1  0  0  0  0
 32 31  2  0  0  0  0
 33 34  1  0  0  0  0
 33 35  1  0  0  0  0
 35 36  2  0  0  0  0
 37 36  1  0  0  0  0
M  END
>  <VSCORE>
 -8.7

>  <MODEL>
1

>  <TORSDO>
F 6

$$$$
81
 OpenBabel08042114533D

 35 38  0  0  1  0  0  0  0  0999 V2000
  -24.2600   14.5070  -19.1860 C   0  0  0  0  0  3  0  0  0  0  0  0
  -24.0180   15.8630  -19.4080 C   0  0  0  0  0  3  0  0  0  0  0  0
  -22.9800   16.2160  -20.2540 C   0  0  0  0  0  0  0  0  0  0  0  0
  -22.5580   17.5920  -20.6680 C   0  0  0  0  0  2  0  0  0  0  0  0
  -21.1480   17.3110  -21.2230 C   0  0  1  0  0  3  0  0  0  0  0  0
  -21.1710   15.8670  -21.7810 C   0  0  1  0  0  3  0  0  0  0  0  0
  -22.2000   15.2390  -20.8870 C   0  0  0  0  0  0  0  0  0  0  0  0
  -22.4390   13.8910  -20.6770 C   0  0  0  0  0  3  0  0  0  0  0  0
  -23.4760   13.5270  -19.8150 C   0  0  0  0  0  3  0  0  0  0  0  0
  -20.7210   18.3080  -22.1650 N   0  0  0  0  0  0  0  0  0  0  0  0
  -20.7580   18.0820  -23.1580 H   0  0  0  0  0  0  0  0  0  0  0  0
  -20.2590   19.5640  -21.7920 C   0  0  0  0  0  0  0  0  0  0  0  0
  -20.1590   19.9700  -20.6380 O   0  0  0  0  0  0  0  0  0  0  0  0
  -19.8820   20.3960  -22.9700 C   0  0  0  0  0  3  0  0  0  0  0  0
  -19.8040   19.8370  -24.1860 C   0  0  0  0  0  3  0  0  0  0  0  0
  -19.4500   20.5630  -25.4180 C   0  0  0  0  0  0  0  0  0  0  0  0
  -19.0740   21.8960  -25.3800 C   0  0  0  0  0  3  0  0  0  0  0  0
  -18.7380   22.6200  -26.4720 N   0  0  0  0  0  0  0  0  0  0  0  0
  -18.7820   21.9730  -27.6580 C   0  0  0  0  0  3  0  0  0  0  0  0
  -19.1460   20.6440  -27.8030 C   0  0  0  0  0  3  0  0  0  0  0  0
  -19.4840   19.9320  -26.6570 C   0  0  0  0  0  3  0  0  0  0  0  0
  -21.5580   15.7840  -23.1640 N   0  0  0  0  0  0  0  0  0  0  0  0
  -22.2610   16.4380  -23.5020 H   0  0  0  0  0  0  0  0  0  0  0  0
  -20.9780   14.8810  -24.0440 C   0  0  0  0  0  0  0  0  0  0  0  0
  -20.0990   14.0750  -23.7560 O   0  0  0  0  0  0  0  0  0  0  0  0
  -21.5450   14.9950  -25.4160 C   0  0  0  0  0  3  0  0  0  0  0  0
  -20.9520   14.3710  -26.4410 C   0  0  0  0  0  3  0  0  0  0  0  0
  -21.4430   14.4380  -27.7890 C   0  0  0  0  0  0  0  0  0  0  0  0
  -20.8410   15.3980  -28.7510 C   0  0  0  0  0  0  0  0  0  0  0  0
  -19.9230   16.1530  -28.4460 O   0  0  0  0  0  0  0  0  0  0  0  0
  -21.4160   15.3520  -30.0070 N   0  0  0  0  0  0  0  0  0  0  0  0
  -21.0630   15.9750  -30.7270 H   0  0  0  0  0  0  0  0  0  0  0  0
  -22.4450   14.4910  -30.3120 C   0  0  0  0  0  3  0  0  0  0  0  0
  -22.9770   13.6520  -29.4840 N   0  0  0  0  0  0  0  0  0  0  0  0
  -22.4440   13.6540  -28.2180 C   0  0  0  0  0  3  0  0  0  0  0  0
  2  1  1  0  0  0  0
  3  2  2  0  0  0  0
  4  3  1  0  0  0  0
  5 10  1  6  0  0  0
  5  4  1  0  0  0  0
  6 22  1  6  0  0  0
  6  5  1  0  0  0  0
  6  7  1  0  0  0  0
  7  8  2  0  0  0  0
  7  3  1  0  0  0  0
  8  9  1  0  0  0  0
  9  1  2  0  0  0  0
 10 12  1  0  0  0  0
 11 10  1  0  0  0  0
 12 13  2  0  0  0  0
 14 12  1  0  0  0  0
 15 14  2  0  0  0  0
 16 17  1  0  0  0  0
 16 15  1  0  0  0  0
 18 17  2  0  0  0  0
 19 18  1  0  0  0  0
 20 19  2  0  0  0  0
 20 21  1  0  0  0  0
 21 16  2  0  0  0  0
 23 22  1  0  0  0  0
 24 25  2  0  0  0  0
 24 22  1  0  0  0  0
 26 24  1  0  0  0  0
 27 26  2  0  0  0  0
 28 27  1  0  0  0  0
 29 30  2  0  0  0  0
 29 28  1  0  0  0  0
 31 29  1  0  0  0  0
 32 31  1  0  0  0  0
 33 31  1  0  0  0  0
 33 34  2  0  0  0  0
 34 35  1  0  0  0  0
 35 28  2  0  0  0  0
M  END
>  <VSCORE>
 -8.4

>  <MODEL>
1

>  <TORSDO>
F 6

$$$$
82
 OpenBabel08042114533D

 38 41  0  0  1  0  0  0  0  0999 V2000
  -20.0120   16.1030  -25.0200 C   0  0  1  0  0  3  0  0  0  0  0  0
  -20.6270   13.8210  -21.4180 C   0  0  0  0  0  3  0  0  0  0  0  0
  -21.7220   14.3380  -22.1120 C   0  0  0  0  0  3  0  0  0  0  0  0
  -21.5220   15.0770  -23.2780 C   0  0  0  0  0  3  0  0  0  0  0  0
  -20.2280   15.2980  -23.7510 C   0  0  0  0  0  0  0  0  0  0  0  0
  -19.1340   14.7810  -23.0570 C   0  0  0  0  0  3  0  0  0  0  0  0
  -19.3330   14.0430  -21.8900 C   0  0  0  0  0  3  0  0  0  0  0  0
  -20.7690   15.5430  -26.1170 N   0  0  0  0  0  0  0  0  0  0  0  0
  -21.6700   15.1190  -25.9180 H   0  0  0  0  0  0  0  0  0  0  0  0
  -20.3220   15.5560  -27.4270 C   0  0  0  0  0  0  0  0  0  0  0  0
  -19.2590   16.0280  -27.8270 O   0  0  0  0  0  0  0  0  0  0  0  0
  -21.2650   14.9260  -28.3580 C   0  0  0  0  0  0  0  0  0  0  0  0
  -21.9370   15.6290  -29.4590 C   0  0  0  0  0  0  0  0  0  0  0  0
  -22.8650   14.8540  -30.3150 C   0  0  0  0  0  0  0  0  0  0  0  0
  -23.5090   15.4430  -31.3370 C   0  0  0  0  0  2  0  0  0  0  0  0
  -23.2990   16.8890  -31.6250 C   0  0  0  0  0  0  0  0  0  0  0  0
  -23.8870   17.4290  -32.5580 O   0  0  0  0  0  0  0  0  0  0  0  0
  -22.4200   17.5400  -30.7810 N   0  0  0  0  0  0  0  0  0  0  0  0
  -22.2410   18.5280  -30.9320 H   0  0  0  0  0  0  0  0  0  0  0  0
  -23.0660   13.4350  -30.0290 C   0  0  0  0  0  3  0  0  0  0  0  0
  -22.4140   12.8610  -29.0030 C   0  0  0  0  0  3  0  0  0  0  0  0
  -21.7650   16.9320  -29.7390 C   0  0  0  0  0  2  0  0  0  0  0  0
  -21.5020   13.6140  -28.1560 C   0  0  0  0  0  3  0  0  0  0  0  0
  -20.3480   17.5930  -24.8590 C   0  0  0  0  0  2  0  0  0  0  0  0
  -19.3460   18.4410  -25.4500 N   0  0  0  0  0  0  0  0  0  0  0  0
  -18.4260   18.4790  -25.0150 H   0  0  0  0  0  0  0  0  0  0  0  0
  -19.5690   19.2130  -26.5860 C   0  0  0  0  0  0  0  0  0  0  0  0
  -20.6260   19.2630  -27.2080 O   0  0  0  0  0  0  0  0  0  0  0  0
  -18.3420   20.0000  -26.9700 C   0  0  0  0  0  2  0  0  0  0  0  0
  -18.3070   21.2590  -26.2120 N   0  0  0  0  0  0  0  0  0  0  0  0
  -19.4100   21.5920  -25.4600 N   0  0  0  0  0  0  0  0  0  0  0  0
  -20.1930   20.9470  -25.4690 H   0  0  0  0  0  0  0  0  0  0  0  0
  -19.4650   22.7450  -24.7200 C   0  0  0  0  0  0  0  0  0  0  0  0
  -20.4320   23.0720  -24.0360 O   0  0  0  0  0  0  0  0  0  0  0  0
  -18.2740   23.6140  -24.7740 C   0  0  0  0  0  3  0  0  0  0  0  0
  -17.2130   23.2810  -25.5080 C   0  0  0  0  0  3  0  0  0  0  0  0
  -17.1820   22.0290  -26.2960 C   0  0  0  0  0  0  0  0  0  0  0  0
  -16.1790   21.7670  -26.9570 O   0  0  0  0  0  0  0  0  0  0  0  0
  1 24  1  1  0  0  0
  1  5  1  0  0  0  0
  3  2  2  0  0  0  0
  4  3  1  0  0  0  0
  5  4  2  0  0  0  0
  5  6  1  0  0  0  0
  6  7  2  0  0  0  0
  7  2  1  0  0  0  0
  8  9  1  0  0  0  0
  8  1  1  0  0  0  0
 10  8  1  0  0  0  0
 11 10  2  0  0  0  0
 12 23  1  0  0  0  0
 12 10  1  0  0  0  0
 13 12  2  0  0  0  0
 14 20  2  0  0  0  0
 14 13  1  0  0  0  0
 15 14  1  0  0  0  0
 16 15  1  0  0  0  0
 16 18  1  0  0  0  0
 17 16  2  0  0  0  0
 18 22  1  0  0  0  0
 19 18  1  0  0  0  0
 20 21  1  0  0  0  0
 21 23  2  0  0  0  0
 22 13  1  0  0  0  0
 25 26  1  0  0  0  0
 25 24  1  0  0  0  0
 27 25  1  0  0  0  0
 28 27  2  0  0  0  0
 29 27  1  0  0  0  0
 29 30  1  0  0  0  0
 30 31  1  0  0  0  0
 31 33  1  0  0  0  0
 32 31  1  0  0  0  0
 33 34  2  0  0  0  0
 35 33  1  0  0  0  0
 36 35  2  0  0  0  0
 37 30  1  0  0  0  0
 37 36  1  0  0  0  0
 38 37  2  0  0  0  0
M  END
>  <VSCORE>
 -9.3

>  <MODEL>
1

>  <TORSDO>
F 7

$$$$
83
 OpenBabel08042114533D

 38 41  0  0  1  0  0  0  0  0999 V2000
  -24.4480   14.3970  -19.5180 C   0  0  0  0  0  3  0  0  0  0  0  0
  -24.2910   15.7550  -19.8000 C   0  0  0  0  0  3  0  0  0  0  0  0
  -23.1370   16.1620  -20.4490 C   0  0  0  0  0  0  0  0  0  0  0  0
  -22.7670   17.5470  -20.8830 C   0  0  0  0  0  2  0  0  0  0  0  0
  -21.2540   17.3840  -21.1210 C   0  0  1  0  0  3  0  0  0  0  0  0
  -21.0280   15.9130  -21.5500 C   0  0  1  0  0  3  0  0  0  0  0  0
  -22.1570   15.2360  -20.8310 C   0  0  0  0  0  0  0  0  0  0  0  0
  -22.3100   13.8870  -20.5600 C   0  0  0  0  0  3  0  0  0  0  0  0
  -23.4640   13.4690  -19.8950 C   0  0  0  0  0  3  0  0  0  0  0  0
  -20.7340   18.3590  -22.0390 N   0  0  0  0  0  0  0  0  0  0  0  0
  -20.6170   18.0850  -23.0140 H   0  0  0  0  0  0  0  0  0  0  0  0
  -20.4310   19.6570  -21.6510 C   0  0  0  0  0  0  0  0  0  0  0  0
  -20.5660   20.1070  -20.5190 O   0  0  0  0  0  0  0  0  0  0  0  0
  -19.9130   20.4750  -22.7840 C   0  0  0  0  0  3  0  0  0  0  0  0
  -19.8100   19.9370  -24.0060 C   0  0  0  0  0  3  0  0  0  0  0  0
  -19.3190   20.6670  -25.1420 C   0  0  0  0  0  0  0  0  0  0  0  0
  -18.8410   19.9340  -26.3440 C   0  0  0  0  0  0  0  0  0  0  0  0
  -18.8470   18.7090  -26.4180 O   0  0  0  0  0  0  0  0  0  0  0  0
  -18.3970   20.7640  -27.3550 N   0  0  0  0  0  0  0  0  0  0  0  0
  -18.0540   20.3460  -28.2150 H   0  0  0  0  0  0  0  0  0  0  0  0
  -18.4070   22.1360  -27.2350 C   0  0  0  0  0  3  0  0  0  0  0  0
  -18.8190   22.7830  -26.1960 N   0  0  0  0  0  0  0  0  0  0  0  0
  -19.2730   22.0070  -25.1570 C   0  0  0  0  0  3  0  0  0  0  0  0
  -21.1120   15.7030  -22.9720 N   0  0  0  0  0  0  0  0  0  0  0  0
  -21.6390   16.3770  -23.5220 H   0  0  0  0  0  0  0  0  0  0  0  0
  -20.4710   14.6480  -23.6040 C   0  0  0  0  0  0  0  0  0  0  0  0
  -19.7820   13.8000  -23.0460 O   0  0  0  0  0  0  0  0  0  0  0  0
  -20.7070   14.6500  -25.0740 C   0  0  0  0  0  3  0  0  0  0  0  0
  -21.8760   15.0810  -25.5660 C   0  0  0  0  0  3  0  0  0  0  0  0
  -22.1720   15.1100  -26.9710 C   0  0  0  0  0  0  0  0  0  0  0  0
  -22.1750   16.4020  -27.7020 C   0  0  0  0  0  0  0  0  0  0  0  0
  -21.9320   17.4720  -27.1540 O   0  0  0  0  0  0  0  0  0  0  0  0
  -22.4750   16.2760  -29.0460 N   0  0  0  0  0  0  0  0  0  0  0  0
  -22.4960   17.1210  -29.6090 H   0  0  0  0  0  0  0  0  0  0  0  0
  -22.7450   15.0570  -29.6340 C   0  0  0  0  0  0  0  0  0  0  0  0
  -22.7440   13.9270  -28.9980 N   0  0  0  0  0  0  0  0  0  0  0  0
  -23.0540   15.0990  -31.1030 C   0  0  0  0  0  1  0  0  0  0  0  0
  -22.4510   13.9930  -27.6580 C   0  0  0  0  0  3  0  0  0  0  0  0
  2  1  1  0  0  0  0
  3  2  2  0  0  0  0
  4  3  1  0  0  0  0
  5 10  1  6  0  0  0
  5  4  1  0  0  0  0
  6 24  1  6  0  0  0
  6  5  1  0  0  0  0
  6  7  1  0  0  0  0
  7  8  2  0  0  0  0
  7  3  1  0  0  0  0
  8  9  1  0  0  0  0
  9  1  2  0  0  0  0
 10 12  1  0  0  0  0
 11 10  1  0  0  0  0
 12 13  2  0  0  0  0
 14 12  1  0  0  0  0
 15 14  2  0  0  0  0
 16 15  1  0  0  0  0
 17 16  1  0  0  0  0
 18 17  2  0  0  0  0
 19 21  1  0  0  0  0
 19 17  1  0  0  0  0
 20 19  1  0  0  0  0
 21 22  2  0  0  0  0
 22 23  1  0  0  0  0
 23 16  2  0  0  0  0
 25 24  1  0  0  0  0
 26 27  2  0  0  0  0
 26 24  1  0  0  0  0
 28 26  1  0  0  0  0
 29 28  2  0  0  0  0
 30 29  1  0  0  0  0
 31 32  2  0  0  0  0
 31 30  1  0  0  0  0
 33 31  1  0  0  0  0
 34 33  1  0  0  0  0
 35 33  1  0  0  0  0
 35 36  2  0  0  0  0
 36 38  1  0  0  0  0
 37 35  1  0  0  0  0
 38 30  2  0  0  0  0
M  END
>  <VSCORE>
 -8.8

>  <MODEL>
1

>  <TORSDO>
F 6

$$$$
84
 OpenBabel08042114533D

 37 40  0  0  1  0  0  0  0  0999 V2000
  -21.8310   15.3420  -20.9650 C   0  0  0  0  0  3  0  0  0  0  0  0
  -21.8450   16.4590  -21.8030 C   0  0  0  0  0  3  0  0  0  0  0  0
  -21.2810   16.3420  -23.0620 C   0  0  0  0  0  0  0  0  0  0  0  0
  -21.2110   17.3830  -24.1380 C   0  0  0  0  0  2  0  0  0  0  0  0
  -20.1250   16.7850  -25.0520 C   0  0  1  0  0  3  0  0  0  0  0  0
  -20.2160   15.2460  -24.9040 C   0  0  1  0  0  3  0  0  0  0  0  0
  -20.7240   15.1320  -23.4960 C   0  0  0  0  0  0  0  0  0  0  0  0
  -20.7120   14.0180  -22.6730 C   0  0  0  0  0  3  0  0  0  0  0  0
  -21.2680   14.1310  -21.3970 C   0  0  0  0  0  3  0  0  0  0  0  0
  -20.2230   17.2610  -26.4040 N   0  0  0  0  0  0  0  0  0  0  0  0
  -20.8450   16.7650  -27.0420 H   0  0  0  0  0  0  0  0  0  0  0  0
  -19.5380   18.3830  -26.8490 C   0  0  0  0  0  0  0  0  0  0  0  0
  -18.7940   19.0760  -26.1630 O   0  0  0  0  0  0  0  0  0  0  0  0
  -19.8080   18.6730  -28.2850 C   0  0  0  0  0  3  0  0  0  0  0  0
  -20.2680   19.8760  -28.6510 C   0  0  0  0  0  3  0  0  0  0  0  0
  -20.5500   20.2230  -30.0160 C   0  0  0  0  0  0  0  0  0  0  0  0
  -20.9190   21.6190  -30.3650 C   0  0  0  0  0  0  0  0  0  0  0  0
  -20.9950   22.5140  -29.5290 O   0  0  0  0  0  0  0  0  0  0  0  0
  -21.1640   21.8030  -31.7140 N   0  0  0  0  0  0  0  0  0  0  0  0
  -21.4220   22.7290  -32.0400 H   0  0  0  0  0  0  0  0  0  0  0  0
  -21.0700   20.7740  -32.6220 C   0  0  0  0  0  3  0  0  0  0  0  0
  -20.7500   19.5570  -32.3310 N   0  0  0  0  0  0  0  0  0  0  0  0
  -20.4950   19.3140  -31.0020 C   0  0  0  0  0  3  0  0  0  0  0  0
  -21.1180   14.6250  -25.8370 N   0  0  0  0  0  0  0  0  0  0  0  0
  -22.0890   14.4960  -25.5600 H   0  0  0  0  0  0  0  0  0  0  0  0
  -20.7300   14.1940  -27.0990 C   0  0  0  0  0  0  0  0  0  0  0  0
  -19.5920   14.2900  -27.5580 O   0  0  0  0  0  0  0  0  0  0  0  0
  -21.8640   13.5700  -27.8890 C   0  0  0  0  0  2  0  0  0  0  0  0
  -22.2380   14.4750  -29.0090 C   0  0  0  0  0  0  0  0  0  0  0  0
  -22.3800   13.8940  -30.3730 C   0  0  0  0  0  0  0  0  0  0  0  0
  -22.1990   12.7000  -30.5920 O   0  0  0  0  0  0  0  0  0  0  0  0
  -22.7290   14.8170  -31.3410 N   0  0  0  0  0  0  0  0  0  0  0  0
  -22.8460   14.4990  -32.2990 H   0  0  0  0  0  0  0  0  0  0  0  0
  -22.9250   16.1510  -31.0570 C   0  0  0  0  0  0  0  0  0  0  0  0
  -22.8040   16.6660  -29.8730 N   0  0  0  0  0  0  0  0  0  0  0  0
  -23.3020   17.0170  -32.2240 C   0  0  0  0  0  1  0  0  0  0  0  0
  -22.4570   15.7920  -28.8730 C   0  0  0  0  0  3  0  0  0  0  0  0
  2  1  2  0  0  0  0
  3  2  1  0  0  0  0
  4  3  1  0  0  0  0
  5 10  1  6  0  0  0
  5  6  1  0  0  0  0
  5  4  1  0  0  0  0
  6 24  1  6  0  0  0
  6  7  1  0  0  0  0
  7  3  2  0  0  0  0
  7  8  1  0  0  0  0
  8  9  2  0  0  0  0
  9  1  1  0  0  0  0
 11 10  1  0  0  0  0
 12 10  1  0  0  0  0
 12 13  2  0  0  0  0
 14 12  1  0  0  0  0
 15 14  2  0  0  0  0
 16 15  1  0  0  0  0
 17 16  1  0  0  0  0
 17 18  2  0  0  0  0
 19 17  1  0  0  0  0
 20 19  1  0  0  0  0
 21 22  2  0  0  0  0
 21 19  1  0  0  0  0
 22 23  1  0  0  0  0
 23 16  2  0  0  0  0
 24 25  1  0  0  0  0
 26 24  1  0  0  0  0
 27 26  2  0  0  0  0
 28 26  1  0  0  0  0
 29 37  2  0  0  0  0
 29 28  1  0  0  0  0
 30 29  1  0  0  0  0
 31 30  2  0  0  0  0
 32 34  1  0  0  0  0
 32 30  1  0  0  0  0
 33 32  1  0  0  0  0
 34 35  2  0  0  0  0
 35 37  1  0  0  0  0
 36 34  1  0  0  0  0
M  END
>  <VSCORE>
 -9.1

>  <MODEL>
1

>  <TORSDO>
F 6

$$$$
85
 OpenBabel08042114533D

 39 42  0  0  1  0  0  0  0  0999 V2000
  -22.4650   12.8590  -29.4430 C   0  0  0  0  0  3  0  0  0  0  0  0
  -23.0820   13.7390  -30.3340 C   0  0  0  0  0  3  0  0  0  0  0  0
  -22.7020   15.0710  -30.3110 C   0  0  0  0  0  0  0  0  0  0  0  0
  -23.2470   16.1910  -31.1430 C   0  0  0  0  0  2  0  0  0  0  0  0
  -22.1370   17.2430  -30.9700 C   0  0  2  0  0  3  0  0  0  0  0  0
  -21.5450   17.0230  -29.5570 C   0  0  1  0  0  3  0  0  0  0  0  0
  -21.7320   15.5360  -29.4110 C   0  0  0  0  0  0  0  0  0  0  0  0
  -21.1260   14.6670  -28.5150 C   0  0  0  0  0  3  0  0  0  0  0  0
  -21.4950   13.3200  -28.5410 C   0  0  0  0  0  3  0  0  0  0  0  0
  -22.6120   18.5840  -31.1710 N   0  0  0  0  0  0  0  0  0  0  0  0
  -23.4800   18.8580  -30.7130 H   0  0  0  0  0  0  0  0  0  0  0  0
  -21.9120   19.5150  -31.9270 C   0  0  0  0  0  0  0  0  0  0  0  0
  -20.8440   19.3080  -32.4930 O   0  0  0  0  0  0  0  0  0  0  0  0
  -22.6080   20.8300  -31.9810 C   0  0  0  0  0  3  0  0  0  0  0  0
  -21.9530   21.9510  -31.6470 C   0  0  0  0  0  3  0  0  0  0  0  0
  -22.5620   23.2510  -31.6760 C   0  0  0  0  0  0  0  0  0  0  0  0
  -23.2280   23.7840  -30.4600 C   0  0  0  0  0  0  0  0  0  0  0  0
  -23.2850   23.1570  -29.4060 O   0  0  0  0  0  0  0  0  0  0  0  0
  -23.7700   25.0440  -30.6370 N   0  0  0  0  0  0  0  0  0  0  0  0
  -24.2440   25.4840  -29.8540 H   0  0  0  0  0  0  0  0  0  0  0  0
  -23.6860   25.7160  -31.8340 C   0  0  0  0  0  3  0  0  0  0  0  0
  -23.1100   25.2620  -32.8980 N   0  0  0  0  0  0  0  0  0  0  0  0
  -22.5520   24.0120  -32.7810 C   0  0  0  0  0  3  0  0  0  0  0  0
  -20.1040   17.5020  -29.4470 C   0  0  0  0  0  2  0  0  0  0  0  0
  -20.0340   18.6430  -28.5960 N   0  0  0  0  0  0  0  0  0  0  0  0
  -20.2310   19.5660  -28.9940 H   0  0  0  0  0  0  0  0  0  0  0  0
  -19.7480   18.5520  -27.2330 C   0  0  0  0  0  0  0  0  0  0  0  0
  -19.5310   17.5060  -26.6320 O   0  0  0  0  0  0  0  0  0  0  0  0
  -19.7380   19.8810  -26.5620 C   0  0  0  0  0  3  0  0  0  0  0  0
  -18.5760   20.5040  -26.3260 C   0  0  0  0  0  3  0  0  0  0  0  0
  -18.4930   21.7860  -25.6840 C   0  0  0  0  0  0  0  0  0  0  0  0
  -17.2410   22.5800  -25.7690 C   0  0  0  0  0  0  0  0  0  0  0  0
  -16.2490   22.1870  -26.3750 O   0  0  0  0  0  0  0  0  0  0  0  0
  -17.3080   23.7910  -25.1040 N   0  0  0  0  0  0  0  0  0  0  0  0
  -16.4840   24.3870  -25.1200 H   0  0  0  0  0  0  0  0  0  0  0  0
  -18.4370   24.2060  -24.4310 C   0  0  0  0  0  0  0  0  0  0  0  0
  -19.5320   23.5150  -24.3530 N   0  0  0  0  0  0  0  0  0  0  0  0
  -18.3390   25.5460  -23.7620 C   0  0  0  0  0  1  0  0  0  0  0  0
  -19.5230   22.3020  -24.9970 C   0  0  0  0  0  3  0  0  0  0  0  0
  1  9  1  0  0  0  0
  2  3  1  0  0  0  0
  2  1  2  0  0  0  0
  3  7  2  0  0  0  0
  4  5  1  0  0  0  0
  4  3  1  0  0  0  0
  5 10  1  1  0  0  0
  5  6  1  0  0  0  0
  6 24  1  6  0  0  0
  6  7  1  0  0  0  0
  7  8  1  0  0  0  0
  9  8  2  0  0  0  0
 10 11  1  0  0  0  0
 12 10  1  0  0  0  0
 13 12  2  0  0  0  0
 14 12  1  0  0  0  0
 14 15  2  0  0  0  0
 16 15  1  0  0  0  0
 16 17  1  0  0  0  0
 17 18  2  0  0  0  0
 19 17  1  0  0  0  0
 19 20  1  0  0  0  0
 21 19  1  0  0  0  0
 22 23  1  0  0  0  0
 22 21  2  0  0  0  0
 23 16  2  0  0  0  0
 24 25  1  0  0  0  0
 25 27  1  0  0  0  0
 26 25  1  0  0  0  0
 27 28  2  0  0  0  0
 27 29  1  0  0  0  0
 29 30  2  0  0  0  0
 30 31  1  0  0  0  0
 31 39  2  0  0  0  0
 32 31  1  0  0  0  0
 32 34  1  0  0  0  0
 33 32  2  0  0  0  0
 34 36  1  0  0  0  0
 35 34  1  0  0  0  0
 36 37  2  0  0  0  0
 36 38  1  0  0  0  0
 39 37  1  0  0  0  0
M  END
>  <VSCORE>
 -8.6

>  <MODEL>
1

>  <TORSDO>
F 7

$$$$
86
 OpenBabel08042114533D

 38 41  0  0  1  0  0  0  0  0999 V2000
  -18.9540   22.7590  -24.4440 C   0  0  0  0  0  3  0  0  0  0  0  0
  -19.3440   21.4670  -24.0940 C   0  0  0  0  0  3  0  0  0  0  0  0
  -19.5020   20.4770  -25.0750 C   0  0  0  0  0  0  0  0  0  0  0  0
  -19.9410   19.0960  -24.6550 C   0  0  0  0  0  2  0  0  0  0  0  0
  -20.0320   18.1080  -25.7420 N   0  0  0  0  0  0  0  0  0  0  0  0
  -19.1950   18.3540  -26.9170 C   0  0  0  0  0  2  0  0  0  0  0  0
  -19.4280   19.7500  -27.5000 C   0  0  2  0  0  3  0  0  0  0  0  0
  -20.7510   16.9140  -25.6630 C   0  0  0  0  0  0  0  0  0  0  0  0
  -20.8340   16.0800  -26.5670 O   0  0  0  0  0  0  0  0  0  0  0  0
  -19.2620   20.7990  -26.4220 C   0  0  0  0  0  0  0  0  0  0  0  0
  -18.8760   22.1040  -26.7640 C   0  0  0  0  0  3  0  0  0  0  0  0
  -18.7210   23.0780  -25.7790 C   0  0  0  0  0  3  0  0  0  0  0  0
  -21.4570   16.6280  -24.3960 C   0  0  0  0  0  3  0  0  0  0  0  0
  -21.1120   15.5380  -23.7020 C   0  0  0  0  0  3  0  0  0  0  0  0
  -21.7360   15.1700  -22.4630 C   0  0  0  0  0  0  0  0  0  0  0  0
  -21.3260   13.9230  -21.7680 C   0  0  0  0  0  0  0  0  0  0  0  0
  -20.4610   13.1720  -22.2110 O   0  0  0  0  0  0  0  0  0  0  0  0
  -22.0100   13.6970  -20.5880 N   0  0  0  0  0  0  0  0  0  0  0  0
  -21.7810   12.8600  -20.0600 H   0  0  0  0  0  0  0  0  0  0  0  0
  -22.9780   14.5600  -20.1160 C   0  0  0  0  0  0  0  0  0  0  0  0
  -23.3380   15.6480  -20.7200 N   0  0  0  0  0  0  0  0  0  0  0  0
  -23.6230   14.1640  -18.8200 C   0  0  0  0  0  1  0  0  0  0  0  0
  -22.6900   15.9230  -21.8990 C   0  0  0  0  0  3  0  0  0  0  0  0
  -20.8030   19.8640  -28.1610 C   0  0  0  0  0  2  0  0  0  0  0  0
  -20.9030   18.9190  -29.2210 N   0  0  0  0  0  0  0  0  0  0  0  0
  -20.2070   18.9630  -29.9730 H   0  0  0  0  0  0  0  0  0  0  0  0
  -21.8950   17.9340  -29.3000 C   0  0  0  0  0  0  0  0  0  0  0  0
  -22.7850   17.7750  -28.4690 O   0  0  0  0  0  0  0  0  0  0  0  0
  -21.7510   17.0820  -30.5350 C   0  0  0  0  0  2  0  0  0  0  0  0
  -21.8930   15.6630  -30.1740 N   0  0  0  0  0  0  0  0  0  0  0  0
  -20.9130   15.0930  -29.3950 N   0  0  0  0  0  0  0  0  0  0  0  0
  -20.1390   15.6850  -29.1110 H   0  0  0  0  0  0  0  0  0  0  0  0
  -20.9650   13.7780  -29.0080 C   0  0  0  0  0  0  0  0  0  0  0  0
  -20.1070   13.2370  -28.3130 O   0  0  0  0  0  0  0  0  0  0  0  0
  -22.1300   13.0050  -29.4770 C   0  0  0  0  0  3  0  0  0  0  0  0
  -23.0710   13.5700  -30.2310 C   0  0  0  0  0  3  0  0  0  0  0  0
  -22.9900   14.9900  -30.6310 C   0  0  0  0  0  0  0  0  0  0  0  0
  -23.8860   15.4640  -31.3290 O   0  0  0  0  0  0  0  0  0  0  0  0
  1  2  1  0  0  0  0
  3  4  1  0  0  0  0
  3  2  2  0  0  0  0
  5  8  1  0  0  0  0
  5  4  1  0  0  0  0
  6  5  1  0  0  0  0
  7 24  1  1  0  0  0
  7  6  1  0  0  0  0
  7 10  1  0  0  0  0
  8 13  1  0  0  0  0
  9  8  2  0  0  0  0
 10  3  1  0  0  0  0
 11 10  2  0  0  0  0
 11 12  1  0  0  0  0
 12  1  2  0  0  0  0
 13 14  2  0  0  0  0
 14 15  1  0  0  0  0
 15 23  2  0  0  0  0
 15 16  1  0  0  0  0
 16 18  1  0  0  0  0
 17 16  2  0  0  0  0
 18 20  1  0  0  0  0
 18 19  1  0  0  0  0
 20 22  1  0  0  0  0
 21 20  2  0  0  0  0
 23 21  1  0  0  0  0
 25 24  1  0  0  0  0
 26 25  1  0  0  0  0
 27 25  1  0  0  0  0
 27 28  2  0  0  0  0
 29 30  1  0  0  0  0
 29 27  1  0  0  0  0
 30 31  1  0  0  0  0
 31 32  1  0  0  0  0
 31 33  1  0  0  0  0
 33 34  2  0  0  0  0
 35 33  1  0  0  0  0
 36 35  2  0  0  0  0
 37 36  1  0  0  0  0
 37 30  1  0  0  0  0
 38 37  2  0  0  0  0
M  END
>  <VSCORE>
 -8.9

>  <MODEL>
1

>  <TORSDO>
F 6

$$$$
87
 OpenBabel08042114533D

 39 42  0  0  1  0  0  0  0  0999 V2000
  -21.0230   18.8500  -29.5220 C   0  0  1  0  0  3  0  0  0  0  0  0
  -21.9490   12.4000  -29.6980 C   0  0  0  0  0  3  0  0  0  0  0  0
  -20.8540   13.1530  -29.2720 C   0  0  0  0  0  3  0  0  0  0  0  0
  -20.8840   14.5560  -29.3290 C   0  0  0  0  0  0  0  0  0  0  0  0
  -22.0390   15.2050  -29.8250 C   0  0  0  0  0  0  0  0  0  0  0  0
  -22.0690   16.6080  -29.8820 C   0  0  0  0  0  3  0  0  0  0  0  0
  -20.9740   17.3610  -29.4550 C   0  0  0  0  0  0  0  0  0  0  0  0
  -19.8380   16.7230  -28.9680 C   0  0  0  0  0  3  0  0  0  0  0  0
  -23.1320   14.4310  -30.2490 C   0  0  0  0  0  3  0  0  0  0  0  0
  -19.7910   15.3300  -28.9040 C   0  0  0  0  0  3  0  0  0  0  0  0
  -23.0850   13.0380  -30.1850 C   0  0  0  0  0  3  0  0  0  0  0  0
  -22.2530   19.3290  -30.1850 N   0  0  0  0  0  0  0  0  0  0  0  0
  -23.1070   19.1750  -29.6870 H   0  0  0  0  0  0  0  0  0  0  0  0
  -22.1980   19.9770  -31.3880 C   0  0  0  0  0  0  0  0  0  0  0  0
  -21.1870   20.2320  -32.0360 O   0  0  0  0  0  0  0  0  0  0  0  0
  -23.5620   20.3610  -31.8430 C   0  0  0  0  0  3  0  0  0  0  0  0
  -24.6020   19.5500  -31.6090 C   0  0  0  0  0  3  0  0  0  0  0  0
  -25.9420   19.8590  -32.0210 C   0  0  0  0  0  0  0  0  0  0  0  0
  -26.8750   18.7620  -32.3900 C   0  0  0  0  0  0  0  0  0  0  0  0
  -26.5520   17.5790  -32.3600 O   0  0  0  0  0  0  0  0  0  0  0  0
  -28.1280   19.2080  -32.7670 N   0  0  0  0  0  0  0  0  0  0  0  0
  -28.8290   18.5230  -33.0360 H   0  0  0  0  0  0  0  0  0  0  0  0
  -28.4530   20.5450  -32.7900 C   0  0  0  0  0  3  0  0  0  0  0  0
  -27.6510   21.5070  -32.4720 N   0  0  0  0  0  0  0  0  0  0  0  0
  -26.3900   21.1220  -32.0870 C   0  0  0  0  0  3  0  0  0  0  0  0
  -20.8910   19.5490  -28.1480 C   0  0  0  0  0  2  0  0  0  0  0  0
  -19.6140   20.1970  -28.0020 N   0  0  0  0  0  0  0  0  0  0  0  0
  -19.3700   20.9370  -28.6590 H   0  0  0  0  0  0  0  0  0  0  0  0
  -18.6940   19.8660  -27.0120 C   0  0  0  0  0  0  0  0  0  0  0  0
  -18.8580   18.9970  -26.1600 O   0  0  0  0  0  0  0  0  0  0  0  0
  -17.4470   20.7070  -27.1090 C   0  0  0  0  0  2  0  0  0  0  0  0
  -17.5770   21.8830  -26.2370 N   0  0  0  0  0  0  0  0  0  0  0  0
  -18.8180   22.2700  -25.6340 C   0  0  0  0  0  2  0  0  0  0  0  0
  -18.3670   23.4990  -24.8740 C   0  0  0  0  0  0  0  0  0  0  0  0
  -19.1010   24.1940  -24.1850 O   0  0  0  0  0  0  0  0  0  0  0  0
  -17.0250   23.6840  -25.0960 N   0  0  0  0  0  0  0  0  0  0  0  0
  -16.4800   24.4410  -24.6990 H   0  0  0  0  0  0  0  0  0  0  0  0
  -16.5110   22.7100  -25.9260 C   0  0  0  0  0  0  0  0  0  0  0  0
  -15.3480   22.6170  -26.2970 O   0  0  0  0  0  0  0  0  0  0  0  0
  1  7  1  0  0  0  0
  1 26  1  1  0  0  0
  2  3  1  0  0  0  0
  4  3  2  0  0  0  0
  4 10  1  0  0  0  0
  5  4  1  0  0  0  0
  6  5  1  0  0  0  0
  6  7  2  0  0  0  0
  7  8  1  0  0  0  0
  8 10  2  0  0  0  0
  9 11  1  0  0  0  0
  9  5  2  0  0  0  0
 11  2  2  0  0  0  0
 12 13  1  0  0  0  0
 12  1  1  0  0  0  0
 14 12  1  0  0  0  0
 15 14  2  0  0  0  0
 16 17  2  0  0  0  0
 16 14  1  0  0  0  0
 18 17  1  0  0  0  0
 19 20  2  0  0  0  0
 19 18  1  0  0  0  0
 21 19  1  0  0  0  0
 22 21  1  0  0  0  0
 23 21  1  0  0  0  0
 23 24  2  0  0  0  0
 24 25  1  0  0  0  0
 25 18  2  0  0  0  0
 26 27  1  0  0  0  0
 27 29  1  0  0  0  0
 28 27  1  0  0  0  0
 29 30  2  0  0  0  0
 31 29  1  0  0  0  0
 31 32  1  0  0  0  0
 32 38  1  0  0  0  0
 32 33  1  0  0  0  0
 33 34  1  0  0  0  0
 34 35  2  0  0  0  0
 36 34  1  0  0  0  0
 36 37  1  0  0  0  0
 38 36  1  0  0  0  0
 39 38  2  0  0  0  0
M  END
>  <VSCORE>
 -9.4

>  <MODEL>
1

>  <TORSDO>
F 8

$$$$
88
 OpenBabel08042114533D

 35 38  0  0  1  0  0  0  0  0999 V2000
  -23.2450   14.7500  -30.6550 C   0  0  0  0  0  3  0  0  0  0  0  0
  -22.8520   13.8940  -29.6260 C   0  0  0  0  0  3  0  0  0  0  0  0
  -21.8570   14.3210  -28.7600 C   0  0  0  0  0  0  0  0  0  0  0  0
  -21.2520   13.5610  -27.6210 C   0  0  0  0  0  2  0  0  0  0  0  0
  -20.5410   14.6820  -26.8370 C   0  0  1  0  0  3  0  0  0  0  0  0
  -20.1730   15.7680  -27.8810 C   0  0  1  0  0  3  0  0  0  0  0  0
  -21.2510   15.5740  -28.9110 C   0  0  0  0  0  0  0  0  0  0  0  0
  -21.6260   16.4210  -29.9430 C   0  0  0  0  0  3  0  0  0  0  0  0
  -22.6370   16.0040  -30.8140 C   0  0  0  0  0  3  0  0  0  0  0  0
  -21.4010   15.1850  -25.7850 N   0  0  0  0  0  0  0  0  0  0  0  0
  -22.2310   15.7140  -26.0520 H   0  0  0  0  0  0  0  0  0  0  0  0
  -21.1560   14.9860  -24.4290 C   0  0  0  0  0  0  0  0  0  0  0  0
  -20.1970   14.3700  -23.9710 O   0  0  0  0  0  0  0  0  0  0  0  0
  -22.2180   15.6250  -23.5720 C   0  0  0  0  0  2  0  0  0  0  0  0
  -21.6600   16.8050  -22.8940 N   0  0  0  0  0  0  0  0  0  0  0  0
  -21.4710   17.9730  -23.6340 C   0  0  0  0  0  0  0  0  0  0  0  0
  -21.7300   18.1200  -24.8270 O   0  0  0  0  0  0  0  0  0  0  0  0
  -20.9000   19.1250  -22.8740 C   0  0  0  0  0  3  0  0  0  0  0  0
  -20.6110   18.9940  -21.5740 C   0  0  0  0  0  3  0  0  0  0  0  0
  -20.8390   17.7520  -20.8870 C   0  0  0  0  0  3  0  0  0  0  0  0
  -21.3480   16.7100  -21.5540 C   0  0  0  0  0  3  0  0  0  0  0  0
  -20.1060   17.0960  -27.3380 N   0  0  0  0  0  0  0  0  0  0  0  0
  -20.5320   17.2600  -26.4270 H   0  0  0  0  0  0  0  0  0  0  0  0
  -19.4560   18.1330  -27.9910 C   0  0  0  0  0  0  0  0  0  0  0  0
  -18.8800   18.0400  -29.0700 O   0  0  0  0  0  0  0  0  0  0  0  0
  -19.5230   19.4070  -27.2230 C   0  0  0  0  0  3  0  0  0  0  0  0
  -18.3980   20.0670  -26.9200 C   0  0  0  0  0  3  0  0  0  0  0  0
  -18.3900   21.3000  -26.1830 C   0  0  0  0  0  0  0  0  0  0  0  0
  -17.2410   22.2340  -26.3150 C   0  0  0  0  0  0  0  0  0  0  0  0
  -16.2770   22.0010  -27.0380 O   0  0  0  0  0  0  0  0  0  0  0  0
  -17.3690   23.3770  -25.5480 N   0  0  0  0  0  0  0  0  0  0  0  0
  -16.6270   24.0710  -25.5790 H   0  0  0  0  0  0  0  0  0  0  0  0
  -18.4650   23.6030  -24.7480 C   0  0  0  0  0  3  0  0  0  0  0  0
  -19.4700   22.7990  -24.6250 N   0  0  0  0  0  0  0  0  0  0  0  0
  -19.3960   21.6440  -25.3660 C   0  0  0  0  0  3  0  0  0  0  0  0
  1  2  1  0  0  0  0
  2  3  2  0  0  0  0
  3  4  1  0  0  0  0
  4  5  1  0  0  0  0
  5 10  1  1  0  0  0
  6 22  1  1  0  0  0
  6  5  1  0  0  0  0
  7  3  1  0  0  0  0
  7  6  1  0  0  0  0
  8  7  2  0  0  0  0
  9  1  2  0  0  0  0
  9  8  1  0  0  0  0
 10 12  1  0  0  0  0
 11 10  1  0  0  0  0
 12 13  2  0  0  0  0
 12 14  1  0  0  0  0
 14 15  1  0  0  0  0
 15 21  1  0  0  0  0
 16 15  1  0  0  0  0
 16 18  1  0  0  0  0
 17 16  2  0  0  0  0
 18 19  2  0  0  0  0
 19 20  1  0  0  0  0
 21 20  2  0  0  0  0
 22 23  1  0  0  0  0
 24 22  1  0  0  0  0
 24 26  1  0  0  0  0
 25 24  2  0  0  0  0
 26 27  2  0  0  0  0
 27 28  1  0  0  0  0
 28 35  2  0  0  0  0
 29 28  1  0  0  0  0
 29 31  1  0  0  0  0
 30 29  2  0  0  0  0
 31 33  1  0  0  0  0
 32 31  1  0  0  0  0
 33 34  2  0  0  0  0
 35 34  1  0  0  0  0
M  END
>  <VSCORE>
 -8.5

>  <MODEL>
1

>  <TORSDO>
F 6

$$$$
89
 OpenBabel08042114533D

 38 41  0  0  1  0  0  0  0  0999 V2000
  -20.8390   19.0250  -29.0280 C   0  0  1  0  0  3  0  0  0  0  0  0
  -21.8240   12.6260  -29.7790 C   0  0  0  0  0  3  0  0  0  0  0  0
  -20.6990   13.3310  -29.3550 C   0  0  0  0  0  3  0  0  0  0  0  0
  -20.7210   14.7330  -29.2710 C   0  0  0  0  0  0  0  0  0  0  0  0
  -21.9020   15.4290  -29.6210 C   0  0  0  0  0  0  0  0  0  0  0  0
  -21.9250   16.8310  -29.5360 C   0  0  0  0  0  3  0  0  0  0  0  0
  -20.7980   17.5360  -29.1120 C   0  0  0  0  0  0  0  0  0  0  0  0
  -19.6360   16.8520  -28.7680 C   0  0  0  0  0  3  0  0  0  0  0  0
  -23.0270   14.7020  -30.0450 C   0  0  0  0  0  3  0  0  0  0  0  0
  -19.5960   15.4600  -28.8460 C   0  0  0  0  0  3  0  0  0  0  0  0
  -22.9860   13.3100  -30.1240 C   0  0  0  0  0  3  0  0  0  0  0  0
  -21.6870   19.6100  -30.0880 N   0  0  0  0  0  0  0  0  0  0  0  0
  -22.6500   19.7470  -29.8530 H   0  0  0  0  0  0  0  0  0  0  0  0
  -21.1540   19.9740  -31.2930 C   0  0  0  0  0  0  0  0  0  0  0  0
  -19.9820   19.8700  -31.6370 O   0  0  0  0  0  0  0  0  0  0  0  0
  -22.2050   20.5400  -32.1830 C   0  0  0  0  0  3  0  0  0  0  0  0
  -23.4940   20.4730  -31.8270 C   0  0  0  0  0  3  0  0  0  0  0  0
  -24.5590   20.9960  -32.6360 C   0  0  0  0  0  0  0  0  0  0  0  0
  -25.7200   20.1360  -32.9830 C   0  0  0  0  0  0  0  0  0  0  0  0
  -25.8190   18.9730  -32.6030 O   0  0  0  0  0  0  0  0  0  0  0  0
  -26.6640   20.7730  -33.7660 N   0  0  0  0  0  0  0  0  0  0  0  0
  -27.4920   20.2560  -34.0490 H   0  0  0  0  0  0  0  0  0  0  0  0
  -26.5180   22.0800  -34.1720 C   0  0  0  0  0  3  0  0  0  0  0  0
  -25.5140   22.8370  -33.8780 N   0  0  0  0  0  0  0  0  0  0  0  0
  -24.5420   22.2560  -33.0990 C   0  0  0  0  0  3  0  0  0  0  0  0
  -21.3070   19.5690  -27.6560 C   0  0  0  0  0  2  0  0  0  0  0  0
  -20.3930   20.5510  -27.1350 N   0  0  0  0  0  0  0  0  0  0  0  0
  -20.5870   21.5350  -27.3060 H   0  0  0  0  0  0  0  0  0  0  0  0
  -19.2620   20.2160  -26.4100 C   0  0  0  0  0  0  0  0  0  0  0  0
  -18.8890   19.0860  -26.1180 O   0  0  0  0  0  0  0  0  0  0  0  0
  -18.4850   21.3960  -25.9870 C   0  0  0  0  0  0  0  0  0  0  0  0
  -17.2070   21.4750  -26.3850 C   0  0  0  0  0  3  0  0  0  0  0  0
  -16.3870   22.6580  -25.9750 C   0  0  0  0  0  0  0  0  0  0  0  0
  -15.2150   22.7500  -26.3280 O   0  0  0  0  0  0  0  0  0  0  0  0
  -17.0430   23.5990  -25.1960 N   0  0  0  0  0  0  0  0  0  0  0  0
  -16.5330   24.4230  -24.8890 H   0  0  0  0  0  0  0  0  0  0  0  0
  -18.3550   23.4820  -24.8090 C   0  0  0  0  0  3  0  0  0  0  0  0
  -19.0870   22.4250  -25.1750 C   0  0  0  0  0  3  0  0  0  0  0  0
  1 26  1  1  0  0  0
  2  3  1  0  0  0  0
  3  4  2  0  0  0  0
  4 10  1  0  0  0  0
  5  6  1  0  0  0  0
  5  4  1  0  0  0  0
  6  7  2  0  0  0  0
  7  1  1  0  0  0  0
  7  8  1  0  0  0  0
  9  5  2  0  0  0  0
 10  8  2  0  0  0  0
 11  9  1  0  0  0  0
 11  2  2  0  0  0  0
 12 13  1  0  0  0  0
 12  1  1  0  0  0  0
 14 12  1  0  0  0  0
 15 14  2  0  0  0  0
 16 17  2  0  0  0  0
 16 14  1  0  0  0  0
 18 17  1  0  0  0  0
 19 18  1  0  0  0  0
 19 20  2  0  0  0  0
 21 19  1  0  0  0  0
 22 21  1  0  0  0  0
 23 24  2  0  0  0  0
 23 21  1  0  0  0  0
 24 25  1  0  0  0  0
 25 18  2  0  0  0  0
 26 27  1  0  0  0  0
 27 29  1  0  0  0  0
 28 27  1  0  0  0  0
 29 30  2  0  0  0  0
 29 31  1  0  0  0  0
 31 38  1  0  0  0  0
 32 31  2  0  0  0  0
 32 33  1  0  0  0  0
 33 35  1  0  0  0  0
 34 33  2  0  0  0  0
 35 36  1  0  0  0  0
 35 37  1  0  0  0  0
 38 37  2  0  0  0  0
M  END
>  <VSCORE>
 -9.6

>  <MODEL>
1

>  <TORSDO>
F 7

$$$$
8
 OpenBabel08042114533D

 39 42  0  0  1  0  0  0  0  0999 V2000
  -24.7740   17.4050  -32.4320 C   0  0  0  0  0  3  0  0  0  0  0  0
  -24.3500   16.2280  -31.8140 C   0  0  0  0  0  3  0  0  0  0  0  0
  -23.2120   16.2720  -31.0250 C   0  0  0  0  0  0  0  0  0  0  0  0
  -22.5560   15.1340  -30.3070 C   0  0  0  0  0  2  0  0  0  0  0  0
  -21.6300   15.8750  -29.3220 C   0  0  1  0  0  3  0  0  0  0  0  0
  -21.2790   17.2260  -29.9990 C   0  0  1  0  0  3  0  0  0  0  0  0
  -22.4930   17.4620  -30.8520 C   0  0  0  0  0  0  0  0  0  0  0  0
  -22.9000   18.6300  -31.4780 C   0  0  0  0  0  3  0  0  0  0  0  0
  -24.0540   18.5980  -32.2660 C   0  0  0  0  0  3  0  0  0  0  0  0
  -22.2870   16.0450  -28.0420 N   0  0  0  0  0  0  0  0  0  0  0  0
  -22.5990   16.9770  -27.7780 H   0  0  0  0  0  0  0  0  0  0  0  0
  -22.5140   14.9970  -27.1560 C   0  0  0  0  0  0  0  0  0  0  0  0
  -22.1890   13.8270  -27.3530 O   0  0  0  0  0  0  0  0  0  0  0  0
  -23.2160   15.4340  -25.8850 C   0  0  0  0  0  2  0  0  0  0  0  0
  -22.2000   15.6820  -24.8260 C   0  0  0  0  0  0  0  0  0  0  0  0
  -21.3380   14.6530  -24.5300 N   0  0  0  0  0  0  0  0  0  0  0  0
  -21.4370   13.7830  -25.0450 H   0  0  0  0  0  0  0  0  0  0  0  0
  -20.3410   14.7360  -23.5700 C   0  0  0  0  0  0  0  0  0  0  0  0
  -19.5770   13.8030  -23.3180 O   0  0  0  0  0  0  0  0  0  0  0  0
  -20.2740   15.9640  -22.9090 N   0  0  0  0  0  0  0  0  0  0  0  0
  -19.5570   16.0660  -22.1960 H   0  0  0  0  0  0  0  0  0  0  0  0
  -21.0960   17.0570  -23.1370 C   0  0  0  0  0  0  0  0  0  0  0  0
  -21.0100   18.1250  -22.5370 O   0  0  0  0  0  0  0  0  0  0  0  0
  -22.1240   16.8560  -24.1840 C   0  0  0  0  0  3  0  0  0  0  0  0
  -20.9950   18.2840  -29.0690 N   0  0  0  0  0  0  0  0  0  0  0  0
  -21.7140   18.9880  -28.9150 H   0  0  0  0  0  0  0  0  0  0  0  0
  -19.8050   18.3470  -28.3590 C   0  0  0  0  0  0  0  0  0  0  0  0
  -18.8870   17.5370  -28.4390 O   0  0  0  0  0  0  0  0  0  0  0  0
  -19.7530   19.5320  -27.4590 C   0  0  0  0  0  3  0  0  0  0  0  0
  -18.6390   20.2720  -27.3860 C   0  0  0  0  0  3  0  0  0  0  0  0
  -18.5210   21.4260  -26.5400 C   0  0  0  0  0  0  0  0  0  0  0  0
  -17.2470   22.1890  -26.5020 C   0  0  0  0  0  0  0  0  0  0  0  0
  -16.2680   21.8770  -27.1720 O   0  0  0  0  0  0  0  0  0  0  0  0
  -17.2780   23.2740  -25.6450 N   0  0  0  0  0  0  0  0  0  0  0  0
  -16.4400   23.8430  -25.5670 H   0  0  0  0  0  0  0  0  0  0  0  0
  -18.3950   23.6010  -24.9030 C   0  0  0  0  0  0  0  0  0  0  0  0
  -19.5080   22.9370  -24.9340 N   0  0  0  0  0  0  0  0  0  0  0  0
  -18.2580   24.8090  -24.0230 C   0  0  0  0  0  1  0  0  0  0  0  0
  -19.5330   21.8480  -25.7700 C   0  0  0  0  0  3  0  0  0  0  0  0
  1  9  2  0  0  0  0
  1  2  1  0  0  0  0
  2  3  2  0  0  0  0
  3  7  1  0  0  0  0
  3  4  1  0  0  0  0
  4  5  1  0  0  0  0
  5 10  1  1  0  0  0
  6  5  1  0  0  0  0
  6 25  1  1  0  0  0
  7  6  1  0  0  0  0
  8  7  2  0  0  0  0
  9  8  1  0  0  0  0
 10 11  1  0  0  0  0
 10 12  1  0  0  0  0
 12 14  1  0  0  0  0
 13 12  2  0  0  0  0
 14 15  1  0  0  0  0
 15 16  1  0  0  0  0
 15 24  2  0  0  0  0
 16 18  1  0  0  0  0
 17 16  1  0  0  0  0
 18 19  2  0  0  0  0
 18 20  1  0  0  0  0
 20 21  1  0  0  0  0
 22 20  1  0  0  0  0
 22 23  2  0  0  0  0
 24 22  1  0  0  0  0
 25 26  1  0  0  0  0
 25 27  1  0  0  0  0
 27 29  1  0  0  0  0
 28 27  2  0  0  0  0
 29 30  2  0  0  0  0
 30 31  1  0  0  0  0
 31 32  1  0  0  0  0
 31 39  2  0  0  0  0
 32 34  1  0  0  0  0
 33 32  2  0  0  0  0
 34 35  1  0  0  0  0
 34 36  1  0  0  0  0
 36 38  1  0  0  0  0
 37 36  2  0  0  0  0
 39 37  1  0  0  0  0
M  END
>  <VSCORE>
 -9.0

>  <MODEL>
1

>  <TORSDO>
F 6

$$$$
90
 OpenBabel08042114533D

 40 43  0  0  1  0  0  0  0  0999 V2000
  -20.2370   18.8850  -27.0900 C   0  0  1  0  0  3  0  0  0  0  0  0
  -18.2370   24.3870  -24.2260 C   0  0  0  0  0  3  0  0  0  0  0  0
  -17.6260   23.5880  -25.1920 C   0  0  0  0  0  3  0  0  0  0  0  0
  -18.2590   22.4280  -25.6670 C   0  0  0  0  0  0  0  0  0  0  0  0
  -19.5290   22.0740  -25.1550 C   0  0  0  0  0  0  0  0  0  0  0  0
  -20.1620   20.9130  -25.6300 C   0  0  0  0  0  3  0  0  0  0  0  0
  -19.5510   20.1140  -26.5960 C   0  0  0  0  0  0  0  0  0  0  0  0
  -18.3010   20.4630  -27.1010 C   0  0  0  0  0  3  0  0  0  0  0  0
  -20.1300   22.8890  -24.1830 C   0  0  0  0  0  3  0  0  0  0  0  0
  -17.6580   21.6120  -26.6390 C   0  0  0  0  0  3  0  0  0  0  0  0
  -19.4860   24.0390  -23.7220 C   0  0  0  0  0  3  0  0  0  0  0  0
  -20.3440   18.8720  -28.5650 N   0  0  0  0  0  0  0  0  0  0  0  0
  -19.6280   18.4170  -29.0980 H   0  0  0  0  0  0  0  0  0  0  0  0
  -21.3880   19.4620  -29.2250 C   0  0  0  0  0  0  0  0  0  0  0  0
  -22.3350   20.0520  -28.7100 O   0  0  0  0  0  0  0  0  0  0  0  0
  -21.2280   19.2920  -30.7140 C   0  0  0  0  0  2  0  0  0  0  0  0
  -22.2150   18.3230  -31.2100 N   0  0  0  0  0  0  0  0  0  0  0  0
  -21.9820   16.9870  -30.9820 N   0  0  0  0  0  0  0  0  0  0  0  0
  -21.1340   16.7400  -30.4800 H   0  0  0  0  0  0  0  0  0  0  0  0
  -22.8490   16.0130  -31.4070 C   0  0  0  0  0  0  0  0  0  0  0  0
  -22.6720   14.8110  -31.2190 O   0  0  0  0  0  0  0  0  0  0  0  0
  -24.0500   16.4760  -32.1270 C   0  0  0  0  0  3  0  0  0  0  0  0
  -24.2630   17.7740  -32.3430 C   0  0  0  0  0  3  0  0  0  0  0  0
  -23.3100   18.8010  -31.8720 C   0  0  0  0  0  0  0  0  0  0  0  0
  -23.5530   19.9870  -32.0960 O   0  0  0  0  0  0  0  0  0  0  0  0
  -19.5800   17.5630  -26.6260 C   0  0  0  0  0  2  0  0  0  0  0  0
  -20.0900   16.4310  -27.3560 N   0  0  0  0  0  0  0  0  0  0  0  0
  -19.9800   16.4160  -28.3680 H   0  0  0  0  0  0  0  0  0  0  0  0
  -20.7260   15.3650  -26.7440 C   0  0  0  0  0  0  0  0  0  0  0  0
  -20.9370   15.2320  -25.5440 O   0  0  0  0  0  0  0  0  0  0  0  0
  -21.1600   14.3330  -27.7030 C   0  0  0  0  0  0  0  0  0  0  0  0
  -20.2570   13.7190  -28.7250 C   0  0  0  0  0  0  0  0  0  0  0  0
  -19.0800   14.0550  -28.8170 O   0  0  0  0  0  0  0  0  0  0  0  0
  -20.8530   12.7640  -29.5390 N   0  0  0  0  0  0  0  0  0  0  0  0
  -20.2630   12.3300  -30.2440 H   0  0  0  0  0  0  0  0  0  0  0  0
  -22.1820   12.3410  -29.4820 C   0  0  0  0  0  0  0  0  0  0  0  0
  -22.6410   11.4850  -30.2390 O   0  0  0  0  0  0  0  0  0  0  0  0
  -22.9370   12.9660  -28.5040 N   0  0  0  0  0  0  0  0  0  0  0  0
  -23.9150   12.7040  -28.4090 H   0  0  0  0  0  0  0  0  0  0  0  0
  -22.4340   13.9180  -27.6600 C   0  0  0  0  0  3  0  0  0  0  0  0
  1 26  1  6  0  0  0
  1  7  1  0  0  0  0
  2 11  1  0  0  0  0
  3  2  2  0  0  0  0
  4  3  1  0  0  0  0
  4  5  1  0  0  0  0
  5  9  1  0  0  0  0
  6  5  2  0  0  0  0
  7  6  1  0  0  0  0
  8 10  1  0  0  0  0
  8  7  2  0  0  0  0
  9 11  2  0  0  0  0
 10  4  2  0  0  0  0
 12  1  1  0  0  0  0
 13 12  1  0  0  0  0
 14 15  2  0  0  0  0
 14 12  1  0  0  0  0
 16 14  1  0  0  0  0
 17 18  1  0  0  0  0
 17 16  1  0  0  0  0
 18 19  1  0  0  0  0
 20 21  2  0  0  0  0
 20 18  1  0  0  0  0
 22 20  1  0  0  0  0
 23 22  2  0  0  0  0
 23 24  1  0  0  0  0
 24 17  1  0  0  0  0
 25 24  2  0  0  0  0
 27 29  1  0  0  0  0
 27 26  1  0  0  0  0
 28 27  1  0  0  0  0
 29 30  2  0  0  0  0
 31 40  2  0  0  0  0
 31 29  1  0  0  0  0
 32 31  1  0  0  0  0
 33 32  2  0  0  0  0
 34 36  1  0  0  0  0
 34 32  1  0  0  0  0
 35 34  1  0  0  0  0
 36 38  1  0  0  0  0
 37 36  2  0  0  0  0
 38 39  1  0  0  0  0
 38 40  1  0  0  0  0
M  END
>  <VSCORE>
 -9.1

>  <MODEL>
1

>  <TORSDO>
F 7

$$$$
91
 OpenBabel08042114533D

 36 39  0  0  1  0  0  0  0  0999 V2000
  -22.0780   14.4470  -20.6740 C   0  0  0  0  0  3  0  0  0  0  0  0
  -21.3360   13.8960  -21.7190 C   0  0  0  0  0  3  0  0  0  0  0  0
  -21.3100   14.5650  -22.9310 C   0  0  0  0  0  0  0  0  0  0  0  0
  -20.5610   14.1890  -24.1730 C   0  0  0  0  0  2  0  0  0  0  0  0
  -21.2820   15.0570  -25.2220 C   0  0  1  0  0  3  0  0  0  0  0  0
  -21.7820   16.3230  -24.4850 C   0  0  1  0  0  3  0  0  0  0  0  0
  -21.9960   15.7750  -23.1040 C   0  0  0  0  0  0  0  0  0  0  0  0
  -22.7290   16.3310  -22.0690 C   0  0  0  0  0  3  0  0  0  0  0  0
  -22.7710   15.6560  -20.8480 C   0  0  0  0  0  3  0  0  0  0  0  0
  -20.4630   15.3210  -26.3730 N   0  0  0  0  0  0  0  0  0  0  0  0
  -19.9060   16.1750  -26.3810 H   0  0  0  0  0  0  0  0  0  0  0  0
  -20.3870   14.4740  -27.4740 C   0  0  0  0  0  0  0  0  0  0  0  0
  -21.0020   13.4180  -27.5930 O   0  0  0  0  0  0  0  0  0  0  0  0
  -19.4510   15.0110  -28.5270 C   0  0  0  0  0  2  0  0  0  0  0  0
  -20.0090   16.2450  -29.1000 N   0  0  0  0  0  0  0  0  0  0  0  0
  -19.4390   17.5380  -28.8640 C   0  0  0  0  0  2  0  0  0  0  0  0
  -20.3920   18.3940  -29.6710 C   0  0  0  0  0  0  0  0  0  0  0  0
  -20.3090   19.6100  -29.7780 O   0  0  0  0  0  0  0  0  0  0  0  0
  -21.3370   17.5790  -30.2440 N   0  0  0  0  0  0  0  0  0  0  0  0
  -22.0900   17.9080  -30.8360 H   0  0  0  0  0  0  0  0  0  0  0  0
  -21.1280   16.2550  -29.9130 C   0  0  0  0  0  0  0  0  0  0  0  0
  -21.8090   15.3060  -30.2770 O   0  0  0  0  0  0  0  0  0  0  0  0
  -20.8320   17.4040  -24.4770 N   0  0  0  0  0  0  0  0  0  0  0  0
  -20.1030   17.3930  -23.7670 H   0  0  0  0  0  0  0  0  0  0  0  0
  -20.8580   18.4200  -25.4220 C   0  0  0  0  0  0  0  0  0  0  0  0
  -21.6650   18.5130  -26.3410 O   0  0  0  0  0  0  0  0  0  0  0  0
  -19.7710   19.4140  -25.2030 C   0  0  0  0  0  3  0  0  0  0  0  0
  -19.4180   20.2510  -26.1870 C   0  0  0  0  0  3  0  0  0  0  0  0
  -18.3790   21.2320  -26.0460 C   0  0  0  0  0  0  0  0  0  0  0  0
  -18.6210   22.4590  -25.2420 C   0  0  0  0  0  0  0  0  0  0  0  0
  -19.6880   22.6800  -24.6770 O   0  0  0  0  0  0  0  0  0  0  0  0
  -17.5340   23.3110  -25.1970 N   0  0  0  0  0  0  0  0  0  0  0  0
  -17.6130   24.1740  -24.6680 H   0  0  0  0  0  0  0  0  0  0  0  0
  -16.3530   23.0270  -25.8440 C   0  0  0  0  0  3  0  0  0  0  0  0
  -16.1310   21.9650  -26.5460 N   0  0  0  0  0  0  0  0  0  0  0  0
  -17.1780   21.0800  -26.6250 C   0  0  0  0  0  3  0  0  0  0  0  0
  2  1  2  0  0  0  0
  3  2  1  0  0  0  0
  4  3  1  0  0  0  0
  5 10  1  6  0  0  0
  5  6  1  0  0  0  0
  5  4  1  0  0  0  0
  6 23  1  1  0  0  0
  6  7  1  0  0  0  0
  7  3  2  0  0  0  0
  7  8  1  0  0  0  0
  8  9  2  0  0  0  0
  9  1  1  0  0  0  0
 11 10  1  0  0  0  0
 12 10  1  0  0  0  0
 13 12  2  0  0  0  0
 14 12  1  0  0  0  0
 15 16  1  0  0  0  0
 15 14  1  0  0  0  0
 17 16  1  0  0  0  0
 18 17  2  0  0  0  0
 19 21  1  0  0  0  0
 19 17  1  0  0  0  0
 20 19  1  0  0  0  0
 21 15  1  0  0  0  0
 22 21  2  0  0  0  0
 23 24  1  0  0  0  0
 25 27  1  0  0  0  0
 25 23  1  0  0  0  0
 26 25  2  0  0  0  0
 28 29  1  0  0  0  0
 28 27  2  0  0  0  0
 29 30  1  0  0  0  0
 30 32  1  0  0  0  0
 30 31  2  0  0  0  0
 32 33  1  0  0  0  0
 34 32  1  0  0  0  0
 35 34  2  0  0  0  0
 36 35  1  0  0  0  0
 36 29  2  0  0  0  0
M  END
>  <VSCORE>
 -9.0

>  <MODEL>
1

>  <TORSDO>
F 6

$$$$
92
 OpenBabel08042114533D

 42 45  0  0  1  0  0  0  0  0999 V2000
  -20.7010   15.2190  -28.4000 C   0  0  1  0  0  3  0  0  0  0  0  0
  -21.3830   14.9160  -21.9260 C   0  0  0  0  0  3  0  0  0  0  0  0
  -22.1540   15.5570  -22.8940 C   0  0  0  0  0  3  0  0  0  0  0  0
  -21.8060   15.4820  -24.2530 C   0  0  0  0  0  0  0  0  0  0  0  0
  -20.6600   14.7440  -24.6340 C   0  0  0  0  0  0  0  0  0  0  0  0
  -20.3120   14.6680  -25.9930 C   0  0  0  0  0  3  0  0  0  0  0  0
  -21.0840   15.3100  -26.9610 C   0  0  0  0  0  0  0  0  0  0  0  0
  -22.2120   16.0360  -26.5870 C   0  0  0  0  0  3  0  0  0  0  0  0
  -19.8960   14.1040  -23.6450 C   0  0  0  0  0  3  0  0  0  0  0  0
  -22.5720   16.1220  -25.2420 C   0  0  0  0  0  3  0  0  0  0  0  0
  -20.2560   14.1910  -22.3000 C   0  0  0  0  0  3  0  0  0  0  0  0
  -21.7760   15.7130  -29.2860 N   0  0  0  0  0  0  0  0  0  0  0  0
  -22.0070   16.6820  -29.1960 H   0  0  0  0  0  0  0  0  0  0  0  0
  -22.3740   14.8850  -30.1950 C   0  0  0  0  0  0  0  0  0  0  0  0
  -22.1190   13.7010  -30.3860 O   0  0  0  0  0  0  0  0  0  0  0  0
  -23.4170   15.6160  -30.9660 C   0  0  0  0  0  3  0  0  0  0  0  0
  -23.4020   16.9540  -31.0130 C   0  0  0  0  0  3  0  0  0  0  0  0
  -24.3760   17.7240  -31.7370 C   0  0  0  0  0  0  0  0  0  0  0  0
  -24.1650   19.1880  -31.9530 C   0  0  0  0  0  0  0  0  0  0  0  0
  -23.1700   19.7700  -31.5300 O   0  0  0  0  0  0  0  0  0  0  0  0
  -25.1730   19.8280  -32.6650 N   0  0  0  0  0  0  0  0  0  0  0  0
  -25.0570   20.8250  -32.8270 H   0  0  0  0  0  0  0  0  0  0  0  0
  -26.3270   19.2360  -33.1790 C   0  0  0  0  0  0  0  0  0  0  0  0
  -27.1790   19.8690  -33.8030 O   0  0  0  0  0  0  0  0  0  0  0  0
  -26.4310   17.8780  -32.9280 N   0  0  0  0  0  0  0  0  0  0  0  0
  -27.2480   17.3850  -33.2740 H   0  0  0  0  0  0  0  0  0  0  0  0
  -25.4890   17.1680  -32.2360 C   0  0  0  0  0  3  0  0  0  0  0  0
  -19.3860   15.9550  -28.7530 C   0  0  0  0  0  2  0  0  0  0  0  0
  -19.3680   17.2940  -28.2250 N   0  0  0  0  0  0  0  0  0  0  0  0
  -18.9370   17.4420  -27.3140 H   0  0  0  0  0  0  0  0  0  0  0  0
  -19.8790   18.3750  -28.9290 C   0  0  0  0  0  0  0  0  0  0  0  0
  -20.3860   18.3180  -30.0440 O   0  0  0  0  0  0  0  0  0  0  0  0
  -19.7400   19.6510  -28.1740 C   0  0  0  0  0  3  0  0  0  0  0  0
  -18.7540   19.7960  -27.2780 C   0  0  0  0  0  3  0  0  0  0  0  0
  -18.5620   20.9970  -26.5150 C   0  0  0  0  0  0  0  0  0  0  0  0
  -17.3500   21.8300  -26.7340 C   0  0  0  0  0  0  0  0  0  0  0  0
  -16.4850   21.5370  -27.5540 O   0  0  0  0  0  0  0  0  0  0  0  0
  -17.3000   22.9520  -25.9280 N   0  0  0  0  0  0  0  0  0  0  0  0
  -16.5040   23.5770  -26.0140 H   0  0  0  0  0  0  0  0  0  0  0  0
  -18.2910   23.2470  -25.0200 C   0  0  0  0  0  3  0  0  0  0  0  0
  -19.3490   22.5320  -24.8210 N   0  0  0  0  0  0  0  0  0  0  0  0
  -19.4520   21.4010  -25.5960 C   0  0  0  0  0  3  0  0  0  0  0  0
  1 28  1  1  0  0  0
  1  7  1  0  0  0  0
  3  2  2  0  0  0  0
  4  3  1  0  0  0  0
  5  4  1  0  0  0  0
  5  9  1  0  0  0  0
  6  5  2  0  0  0  0
  7  8  2  0  0  0  0
  7  6  1  0  0  0  0
  8 10  1  0  0  0  0
  9 11  2  0  0  0  0
 10  4  2  0  0  0  0
 11  2  1  0  0  0  0
 12 13  1  0  0  0  0
 12  1  1  0  0  0  0
 14 12  1  0  0  0  0
 15 14  2  0  0  0  0
 16 14  1  0  0  0  0
 17 16  2  0  0  0  0
 18 17  1  0  0  0  0
 19 18  1  0  0  0  0
 19 20  2  0  0  0  0
 21 19  1  0  0  0  0
 22 21  1  0  0  0  0
 23 25  1  0  0  0  0
 23 21  1  0  0  0  0
 24 23  2  0  0  0  0
 25 27  1  0  0  0  0
 26 25  1  0  0  0  0
 27 18  2  0  0  0  0
 28 29  1  0  0  0  0
 29 30  1  0  0  0  0
 31 29  1  0  0  0  0
 31 33  1  0  0  0  0
 32 31  2  0  0  0  0
 33 34  2  0  0  0  0
 34 35  1  0  0  0  0
 35 42  2  0  0  0  0
 36 35  1  0  0  0  0
 36 38  1  0  0  0  0
 37 36  2  0  0  0  0
 38 40  1  0  0  0  0
 39 38  1  0  0  0  0
 40 41  2  0  0  0  0
 42 41  1  0  0  0  0
M  END
>  <VSCORE>
 -9.6

>  <MODEL>
1

>  <TORSDO>
F 8

$$$$
93
 OpenBabel08042114533D

 40 43  0  0  1  0  0  0  0  0999 V2000
  -20.5360   13.7520  -20.9880 C   0  0  0  0  0  3  0  0  0  0  0  0
  -19.9970   13.6460  -22.2710 C   0  0  0  0  0  3  0  0  0  0  0  0
  -20.6130   14.3370  -23.3010 C   0  0  0  0  0  0  0  0  0  0  0  0
  -20.1990   14.4040  -24.7390 C   0  0  0  0  0  2  0  0  0  0  0  0
  -21.4890   14.9370  -25.3900 C   0  0  1  0  0  3  0  0  0  0  0  0
  -22.1960   15.8110  -24.3250 C   0  0  1  0  0  3  0  0  0  0  0  0
  -21.7390   15.1370  -23.0640 C   0  0  0  0  0  0  0  0  0  0  0  0
  -22.2750   15.2520  -21.7930 C   0  0  0  0  0  3  0  0  0  0  0  0
  -21.6680   14.5490  -20.7500 C   0  0  0  0  0  3  0  0  0  0  0  0
  -21.2390   15.6040  -26.6380 N   0  0  0  0  0  0  0  0  0  0  0  0
  -21.0290   16.6010  -26.6140 H   0  0  0  0  0  0  0  0  0  0  0  0
  -21.2330   14.9320  -27.8530 C   0  0  0  0  0  0  0  0  0  0  0  0
  -21.4340   13.7310  -27.9970 O   0  0  0  0  0  0  0  0  0  0  0  0
  -20.9450   15.8420  -28.9960 C   0  0  0  0  0  3  0  0  0  0  0  0
  -21.5710   17.0220  -29.0880 C   0  0  0  0  0  3  0  0  0  0  0  0
  -21.3420   17.9470  -30.1630 C   0  0  0  0  0  0  0  0  0  0  0  0
  -22.0520   17.7720  -31.4550 C   0  0  0  0  0  0  0  0  0  0  0  0
  -22.8440   16.8560  -31.6570 O   0  0  0  0  0  0  0  0  0  0  0  0
  -21.7340   18.7340  -32.3960 N   0  0  0  0  0  0  0  0  0  0  0  0
  -22.1840   18.6770  -33.3050 H   0  0  0  0  0  0  0  0  0  0  0  0
  -20.8390   19.7530  -32.1400 C   0  0  0  0  0  0  0  0  0  0  0  0
  -20.2170   19.9080  -31.0120 N   0  0  0  0  0  0  0  0  0  0  0  0
  -20.6080   20.7130  -33.2720 C   0  0  0  0  0  1  0  0  0  0  0  0
  -20.4950   18.9790  -30.0410 C   0  0  0  0  0  3  0  0  0  0  0  0
  -21.8000   17.1940  -24.3520 N   0  0  0  0  0  0  0  0  0  0  0  0
  -20.8140   17.4050  -24.4930 H   0  0  0  0  0  0  0  0  0  0  0  0
  -22.7150   18.2300  -24.2340 C   0  0  0  0  0  0  0  0  0  0  0  0
  -23.9270   18.0930  -24.0970 O   0  0  0  0  0  0  0  0  0  0  0  0
  -22.0600   19.5650  -24.2960 C   0  0  0  0  0  3  0  0  0  0  0  0
  -20.7380   19.6560  -24.4910 C   0  0  0  0  0  3  0  0  0  0  0  0
  -20.0410   20.9100  -24.5610 C   0  0  0  0  0  0  0  0  0  0  0  0
  -18.8800   21.0730  -25.4900 C   0  0  0  0  0  0  0  0  0  0  0  0
  -18.4950   20.1580  -26.2130 O   0  0  0  0  0  0  0  0  0  0  0  0
  -18.2840   22.3280  -25.4710 N   0  0  0  0  0  0  0  0  0  0  0  0
  -17.4910   22.4680  -26.0910 H   0  0  0  0  0  0  0  0  0  0  0  0
  -18.6660   23.4140  -24.6820 C   0  0  0  0  0  0  0  0  0  0  0  0
  -18.0890   24.5010  -24.7200 O   0  0  0  0  0  0  0  0  0  0  0  0
  -19.7490   23.1660  -23.8560 N   0  0  0  0  0  0  0  0  0  0  0  0
  -20.0800   23.9140  -23.2550 H   0  0  0  0  0  0  0  0  0  0  0  0
  -20.3970   21.9600  -23.8090 C   0  0  0  0  0  3  0  0  0  0  0  0
  1  9  1  0  0  0  0
  2  1  2  0  0  0  0
  3  7  2  0  0  0  0
  3  2  1  0  0  0  0
  4  3  1  0  0  0  0
  5 10  1  6  0  0  0
  5  4  1  0  0  0  0
  5  6  1  0  0  0  0
  6 25  1  1  0  0  0
  6  7  1  0  0  0  0
  7  8  1  0  0  0  0
  8  9  2  0  0  0  0
 10 11  1  0  0  0  0
 12 10  1  0  0  0  0
 13 12  2  0  0  0  0
 14 12  1  0  0  0  0
 15 14  2  0  0  0  0
 16 24  2  0  0  0  0
 16 15  1  0  0  0  0
 17 16  1  0  0  0  0
 18 17  2  0  0  0  0
 19 21  1  0  0  0  0
 19 17  1  0  0  0  0
 20 19  1  0  0  0  0
 21 22  2  0  0  0  0
 22 24  1  0  0  0  0
 23 21  1  0  0  0  0
 25 27  1  0  0  0  0
 26 25  1  0  0  0  0
 27 28  2  0  0  0  0
 29 27  1  0  0  0  0
 30 29  2  0  0  0  0
 31 30  1  0  0  0  0
 31 40  2  0  0  0  0
 32 34  1  0  0  0  0
 32 31  1  0  0  0  0
 33 32  2  0  0  0  0
 34 36  1  0  0  0  0
 35 34  1  0  0  0  0
 36 38  1  0  0  0  0
 37 36  2  0  0  0  0
 38 40  1  0  0  0  0
 38 39  1  0  0  0  0
M  END
>  <VSCORE>
 -8.6

>  <MODEL>
1

>  <TORSDO>
F 6

$$$$
94
 OpenBabel08042114533D

 37 40  0  0  1  0  0  0  0  0999 V2000
  -24.2490   14.5210  -19.2390 C   0  0  0  0  0  3  0  0  0  0  0  0
  -23.9820   15.8760  -19.4440 C   0  0  0  0  0  3  0  0  0  0  0  0
  -22.9300   16.2200  -20.2760 C   0  0  0  0  0  0  0  0  0  0  0  0
  -22.4820   17.5940  -20.6710 C   0  0  0  0  0  2  0  0  0  0  0  0
  -21.0720   17.2950  -21.2140 C   0  0  1  0  0  3  0  0  0  0  0  0
  -21.1120   15.8570  -21.7880 C   0  0  1  0  0  3  0  0  0  0  0  0
  -22.1600   15.2370  -20.9120 C   0  0  0  0  0  0  0  0  0  0  0  0
  -22.4230   13.8910  -20.7180 C   0  0  0  0  0  3  0  0  0  0  0  0
  -23.4740   13.5350  -19.8710 C   0  0  0  0  0  3  0  0  0  0  0  0
  -20.6180   18.2950  -22.1420 N   0  0  0  0  0  0  0  0  0  0  0  0
  -20.5570   18.0410  -23.1270 H   0  0  0  0  0  0  0  0  0  0  0  0
  -20.3050   19.5880  -21.7460 C   0  0  0  0  0  0  0  0  0  0  0  0
  -20.3770   20.0140  -20.5990 O   0  0  0  0  0  0  0  0  0  0  0  0
  -19.8650   20.4340  -22.8910 C   0  0  0  0  0  3  0  0  0  0  0  0
  -19.7640   19.9030  -24.1160 C   0  0  0  0  0  3  0  0  0  0  0  0
  -19.3450   20.6600  -25.2630 C   0  0  0  0  0  0  0  0  0  0  0  0
  -19.1050   19.9700  -26.5590 C   0  0  0  0  0  0  0  0  0  0  0  0
  -19.2510   18.7600  -26.7010 O   0  0  0  0  0  0  0  0  0  0  0  0
  -18.7060   20.8230  -27.5710 N   0  0  0  0  0  0  0  0  0  0  0  0
  -18.5210   20.4340  -28.4910 H   0  0  0  0  0  0  0  0  0  0  0  0
  -18.5530   22.1760  -27.3710 C   0  0  0  0  0  3  0  0  0  0  0  0
  -18.7590   22.7860  -26.2510 N   0  0  0  0  0  0  0  0  0  0  0  0
  -19.1580   21.9860  -25.2070 C   0  0  0  0  0  3  0  0  0  0  0  0
  -21.4860   15.7960  -23.1760 N   0  0  0  0  0  0  0  0  0  0  0  0
  -22.1310   16.5000  -23.5270 H   0  0  0  0  0  0  0  0  0  0  0  0
  -20.9680   14.8430  -24.0420 C   0  0  0  0  0  0  0  0  0  0  0  0
  -20.1590   13.9730  -23.7370 O   0  0  0  0  0  0  0  0  0  0  0  0
  -21.5060   14.9920  -25.4230 C   0  0  0  0  0  3  0  0  0  0  0  0
  -20.9570   14.3080  -26.4340 C   0  0  0  0  0  3  0  0  0  0  0  0
  -21.4240   14.4030  -27.7890 C   0  0  0  0  0  0  0  0  0  0  0  0
  -20.7060   15.2680  -28.7620 C   0  0  0  0  0  0  0  0  0  0  0  0
  -19.7100   15.9180  -28.4610 O   0  0  0  0  0  0  0  0  0  0  0  0
  -21.2690   15.2620  -30.0240 N   0  0  0  0  0  0  0  0  0  0  0  0
  -20.8410   15.8260  -30.7520 H   0  0  0  0  0  0  0  0  0  0  0  0
  -22.3890   14.5190  -30.3240 C   0  0  0  0  0  3  0  0  0  0  0  0
  -23.0210   13.7640  -29.4870 N   0  0  0  0  0  0  0  0  0  0  0  0
  -22.5040   13.7300  -28.2140 C   0  0  0  0  0  3  0  0  0  0  0  0
  2  1  1  0  0  0  0
  3  2  2  0  0  0  0
  4  3  1  0  0  0  0
  5 10  1  6  0  0  0
  5  4  1  0  0  0  0
  6 24  1  6  0  0  0
  6  5  1  0  0  0  0
  6  7  1  0  0  0  0
  7  8  2  0  0  0  0
  7  3  1  0  0  0  0
  8  9  1  0  0  0  0
  9  1  2  0  0  0  0
 10 12  1  0  0  0  0
 11 10  1  0  0  0  0
 12 13  2  0  0  0  0
 14 12  1  0  0  0  0
 15 14  2  0  0  0  0
 16 23  2  0  0  0  0
 16 15  1  0  0  0  0
 17 16  1  0  0  0  0
 18 17  2  0  0  0  0
 19 21  1  0  0  0  0
 19 17  1  0  0  0  0
 20 19  1  0  0  0  0
 21 22  2  0  0  0  0
 22 23  1  0  0  0  0
 25 24  1  0  0  0  0
 26 27  2  0  0  0  0
 26 24  1  0  0  0  0
 28 26  1  0  0  0  0
 29 28  2  0  0  0  0
 30 29  1  0  0  0  0
 31 32  2  0  0  0  0
 31 30  1  0  0  0  0
 33 31  1  0  0  0  0
 34 33  1  0  0  0  0
 35 33  1  0  0  0  0
 35 36  2  0  0  0  0
 36 37  1  0  0  0  0
 37 30  2  0  0  0  0
M  END
>  <VSCORE>
 -8.7

>  <MODEL>
1

>  <TORSDO>
F 6

$$$$
95
 OpenBabel08042114533D

 38 41  0  0  1  0  0  0  0  0999 V2000
  -20.2250   18.9050  -29.7540 C   0  0  1  0  0  3  0  0  0  0  0  0
  -22.0640   12.6700  -29.2920 C   0  0  0  0  0  3  0  0  0  0  0  0
  -20.9050   13.3140  -28.8560 C   0  0  0  0  0  3  0  0  0  0  0  0
  -20.7260   14.6900  -29.0710 C   0  0  0  0  0  0  0  0  0  0  0  0
  -21.7370   15.4230  -29.7370 C   0  0  0  0  0  0  0  0  0  0  0  0
  -21.5570   16.8000  -29.9520 C   0  0  0  0  0  3  0  0  0  0  0  0
  -20.3990   17.4440  -29.5170 C   0  0  0  0  0  0  0  0  0  0  0  0
  -19.4050   16.7220  -28.8620 C   0  0  0  0  0  3  0  0  0  0  0  0
  -22.8970   14.7600  -30.1680 C   0  0  0  0  0  3  0  0  0  0  0  0
  -19.5660   15.3540  -28.6400 C   0  0  0  0  0  3  0  0  0  0  0  0
  -23.0580   13.3910  -29.9460 C   0  0  0  0  0  3  0  0  0  0  0  0
  -21.3810   19.4850  -30.4700 N   0  0  0  0  0  0  0  0  0  0  0  0
  -22.2570   19.5740  -29.9910 H   0  0  0  0  0  0  0  0  0  0  0  0
  -21.2860   19.9020  -31.7640 C   0  0  0  0  0  0  0  0  0  0  0  0
  -20.3020   19.8690  -32.4950 O   0  0  0  0  0  0  0  0  0  0  0  0
  -22.5690   20.4390  -32.2540 C   0  0  0  0  0  0  0  0  0  0  0  0
  -23.8340   19.6590  -32.2550 C   0  0  0  0  0  0  0  0  0  0  0  0
  -23.8870   18.5060  -31.8400 O   0  0  0  0  0  0  0  0  0  0  0  0
  -24.9120   20.3600  -32.7610 N   0  0  0  0  0  0  0  0  0  0  0  0
  -25.8200   19.9040  -32.7990 H   0  0  0  0  0  0  0  0  0  0  0  0
  -24.7980   21.6540  -33.2140 C   0  0  0  0  0  3  0  0  0  0  0  0
  -23.7040   22.3430  -33.2180 N   0  0  0  0  0  0  0  0  0  0  0  0
  -22.5970   21.6940  -32.7250 C   0  0  0  0  0  3  0  0  0  0  0  0
  -19.9680   19.7300  -28.4700 C   0  0  0  0  0  2  0  0  0  0  0  0
  -20.7100   19.2140  -27.3500 N   0  0  0  0  0  0  0  0  0  0  0  0
  -21.6940   18.9900  -27.4860 H   0  0  0  0  0  0  0  0  0  0  0  0
  -20.1550   19.0050  -26.0920 C   0  0  0  0  0  0  0  0  0  0  0  0
  -18.9860   19.2320  -25.7910 O   0  0  0  0  0  0  0  0  0  0  0  0
  -21.1720   18.4630  -25.1200 C   0  0  0  0  0  2  0  0  0  0  0  0
  -20.9940   17.0110  -24.9800 N   0  0  0  0  0  0  0  0  0  0  0  0
  -20.0540   16.5570  -24.0850 N   0  0  0  0  0  0  0  0  0  0  0  0
  -19.5290   17.2540  -23.5660 H   0  0  0  0  0  0  0  0  0  0  0  0
  -19.8230   15.2200  -23.8860 C   0  0  0  0  0  0  0  0  0  0  0  0
  -18.9920   14.7810  -23.0940 O   0  0  0  0  0  0  0  0  0  0  0  0
  -20.6380   14.2890  -24.6900 C   0  0  0  0  0  3  0  0  0  0  0  0
  -21.5450   14.7430  -25.5550 C   0  0  0  0  0  3  0  0  0  0  0  0
  -21.7730   16.1910  -25.7460 C   0  0  0  0  0  0  0  0  0  0  0  0
  -22.6230   16.5570  -26.5580 O   0  0  0  0  0  0  0  0  0  0  0  0
  1  7  1  0  0  0  0
  1 24  1  1  0  0  0
  2  3  1  0  0  0  0
  4  3  2  0  0  0  0
  4 10  1  0  0  0  0
  5  4  1  0  0  0  0
  6  5  1  0  0  0  0
  6  7  2  0  0  0  0
  7  8  1  0  0  0  0
  8 10  2  0  0  0  0
  9 11  1  0  0  0  0
  9  5  2  0  0  0  0
 11  2  2  0  0  0  0
 12 13  1  0  0  0  0
 12  1  1  0  0  0  0
 14 12  1  0  0  0  0
 15 14  2  0  0  0  0
 16 14  1  0  0  0  0
 17 16  1  0  0  0  0
 17 18  2  0  0  0  0
 19 17  1  0  0  0  0
 20 19  1  0  0  0  0
 21 19  1  0  0  0  0
 22 21  2  0  0  0  0
 22 23  1  0  0  0  0
 23 16  2  0  0  0  0
 24 25  1  0  0  0  0
 25 27  1  0  0  0  0
 26 25  1  0  0  0  0
 27 28  2  0  0  0  0
 27 29  1  0  0  0  0
 29 30  1  0  0  0  0
 30 31  1  0  0  0  0
 31 33  1  0  0  0  0
 31 32  1  0  0  0  0
 33 34  2  0  0  0  0
 35 33  1  0  0  0  0
 36 35  2  0  0  0  0
 37 36  1  0  0  0  0
 37 30  1  0  0  0  0
 38 37  2  0  0  0  0
M  END
>  <VSCORE>
 -8.7

>  <MODEL>
1

>  <TORSDO>
F 7

$$$$
96
 OpenBabel08042114533D

 41 44  0  0  1  0  0  0  0  0999 V2000
  -20.4080   19.0610  -29.6690 C   0  0  1  0  0  3  0  0  0  0  0  0
  -22.0180   12.7480  -29.4990 C   0  0  0  0  0  3  0  0  0  0  0  0
  -20.8800   13.4100  -29.0430 C   0  0  0  0  0  3  0  0  0  0  0  0
  -20.7510   14.8010  -29.1920 C   0  0  0  0  0  0  0  0  0  0  0  0
  -21.7950   15.5290  -29.8110 C   0  0  0  0  0  0  0  0  0  0  0  0
  -21.6670   16.9200  -29.9590 C   0  0  0  0  0  3  0  0  0  0  0  0
  -20.5270   17.5830  -29.5040 C   0  0  0  0  0  0  0  0  0  0  0  0
  -19.5010   16.8670  -28.8940 C   0  0  0  0  0  3  0  0  0  0  0  0
  -22.9340   14.8460  -30.2640 C   0  0  0  0  0  3  0  0  0  0  0  0
  -19.6120   15.4840  -28.7380 C   0  0  0  0  0  3  0  0  0  0  0  0
  -23.0440   13.4640  -30.1090 C   0  0  0  0  0  3  0  0  0  0  0  0
  -20.8270   19.4970  -31.0180 N   0  0  0  0  0  0  0  0  0  0  0  0
  -21.4230   18.9000  -31.5560 H   0  0  0  0  0  0  0  0  0  0  0  0
  -20.4260   20.6920  -31.5540 C   0  0  0  0  0  0  0  0  0  0  0  0
  -19.7000   21.5250  -31.0170 O   0  0  0  0  0  0  0  0  0  0  0  0
  -21.0040   20.8640  -32.9350 C   0  0  0  0  0  2  0  0  0  0  0  0
  -22.0400   21.9060  -32.9110 N   0  0  0  0  0  0  0  0  0  0  0  0
  -21.6520   23.2090  -33.1220 N   0  0  0  0  0  0  0  0  0  0  0  0
  -20.6650   23.3820  -33.2840 H   0  0  0  0  0  0  0  0  0  0  0  0
  -22.5500   24.2460  -33.1190 C   0  0  0  0  0  0  0  0  0  0  0  0
  -22.2380   25.4200  -33.3050 O   0  0  0  0  0  0  0  0  0  0  0  0
  -23.9600   23.8890  -32.8740 C   0  0  0  0  0  3  0  0  0  0  0  0
  -24.3220   22.6220  -32.6680 C   0  0  0  0  0  3  0  0  0  0  0  0
  -23.3310   21.5250  -32.6790 C   0  0  0  0  0  0  0  0  0  0  0  0
  -23.7160   20.3720  -32.4850 O   0  0  0  0  0  0  0  0  0  0  0  0
  -21.1880   19.8810  -28.6140 C   0  0  0  0  0  2  0  0  0  0  0  0
  -21.2830   19.1790  -27.3600 N   0  0  0  0  0  0  0  0  0  0  0  0
  -22.0680   18.5430  -27.2290 H   0  0  0  0  0  0  0  0  0  0  0  0
  -20.3300   19.3130  -26.3620 C   0  0  0  0  0  0  0  0  0  0  0  0
  -19.3300   20.0200  -26.4280 O   0  0  0  0  0  0  0  0  0  0  0  0
  -20.6510   18.4830  -25.1680 C   0  0  0  0  0  3  0  0  0  0  0  0
  -20.9400   17.1840  -25.3130 C   0  0  0  0  0  3  0  0  0  0  0  0
  -21.2600   16.3250  -24.2060 C   0  0  0  0  0  0  0  0  0  0  0  0
  -20.9000   14.8850  -24.2570 C   0  0  0  0  0  0  0  0  0  0  0  0
  -20.3300   14.3790  -25.2190 O   0  0  0  0  0  0  0  0  0  0  0  0
  -21.2680   14.1830  -23.1240 N   0  0  0  0  0  0  0  0  0  0  0  0
  -21.0520   13.1900  -23.0900 H   0  0  0  0  0  0  0  0  0  0  0  0
  -21.9080   14.7800  -22.0570 C   0  0  0  0  0  0  0  0  0  0  0  0
  -22.2240   16.0370  -22.0110 N   0  0  0  0  0  0  0  0  0  0  0  0
  -22.2370   13.8730  -20.9080 C   0  0  0  0  0  1  0  0  0  0  0  0
  -21.8810   16.7840  -23.1110 C   0  0  0  0  0  3  0  0  0  0  0  0
  1  7  1  0  0  0  0
  1 26  1  1  0  0  0
  2  3  1  0  0  0  0
  4  3  2  0  0  0  0
  4 10  1  0  0  0  0
  5  4  1  0  0  0  0
  6  5  1  0  0  0  0
  6  7  2  0  0  0  0
  7  8  1  0  0  0  0
  8 10  2  0  0  0  0
  9 11  1  0  0  0  0
  9  5  2  0  0  0  0
 11  2  2  0  0  0  0
 12  1  1  0  0  0  0
 13 12  1  0  0  0  0
 14 12  1  0  0  0  0
 14 15  2  0  0  0  0
 16 17  1  0  0  0  0
 16 14  1  0  0  0  0
 17 24  1  0  0  0  0
 18 20  1  0  0  0  0
 18 17  1  0  0  0  0
 19 18  1  0  0  0  0
 20 22  1  0  0  0  0
 21 20  2  0  0  0  0
 22 23  2  0  0  0  0
 24 23  1  0  0  0  0
 24 25  2  0  0  0  0
 26 27  1  0  0  0  0
 27 28  1  0  0  0  0
 27 29  1  0  0  0  0
 29 31  1  0  0  0  0
 30 29  2  0  0  0  0
 32 31  2  0  0  0  0
 32 33  1  0  0  0  0
 33 41  2  0  0  0  0
 34 33  1  0  0  0  0
 34 36  1  0  0  0  0
 35 34  2  0  0  0  0
 36 37  1  0  0  0  0
 36 38  1  0  0  0  0
 38 39  2  0  0  0  0
 38 40  1  0  0  0  0
 41 39  1  0  0  0  0
M  END
>  <VSCORE>
 -8.8

>  <MODEL>
1

>  <TORSDO>
F 8

$$$$
97
 OpenBabel08042114533D

 37 40  0  0  1  0  0  0  0  0999 V2000
  -20.9820   17.3600  -25.8000 C   0  0  1  0  0  3  0  0  0  0  0  0
  -23.0950   13.2990  -30.4390 C   0  0  0  0  0  3  0  0  0  0  0  0
  -23.0980   14.6920  -30.3770 C   0  0  0  0  0  3  0  0  0  0  0  0
  -22.5810   15.3600  -29.2550 C   0  0  0  0  0  0  0  0  0  0  0  0
  -22.0520   14.6040  -28.1820 C   0  0  0  0  0  0  0  0  0  0  0  0
  -21.5340   15.2720  -27.0600 C   0  0  0  0  0  3  0  0  0  0  0  0
  -21.5360   16.6660  -26.9990 C   0  0  0  0  0  0  0  0  0  0  0  0
  -22.0560   17.4100  -28.0550 C   0  0  0  0  0  3  0  0  0  0  0  0
  -22.0570   13.2020  -28.2620 C   0  0  0  0  0  3  0  0  0  0  0  0
  -22.5740   16.7630  -29.1760 C   0  0  0  0  0  3  0  0  0  0  0  0
  -22.5760   12.5550  -29.3840 C   0  0  0  0  0  3  0  0  0  0  0  0
  -21.0700   16.5170  -24.5900 N   0  0  0  0  0  0  0  0  0  0  0  0
  -20.3690   15.8200  -24.4280 H   0  0  0  0  0  0  0  0  0  0  0  0
  -22.0820   16.6630  -23.6880 C   0  0  0  0  0  0  0  0  0  0  0  0
  -23.0160   17.4560  -23.7270 O   0  0  0  0  0  0  0  0  0  0  0  0
  -21.9530   15.7090  -22.5720 C   0  0  0  0  0  0  0  0  0  0  0  0
  -20.8560   14.9380  -22.5330 C   0  0  0  0  0  3  0  0  0  0  0  0
  -20.6920   13.9590  -21.4160 C   0  0  0  0  0  0  0  0  0  0  0  0
  -19.6950   13.2440  -21.3600 O   0  0  0  0  0  0  0  0  0  0  0  0
  -21.7200   13.9310  -20.4870 N   0  0  0  0  0  0  0  0  0  0  0  0
  -21.6600   13.2840  -19.7070 H   0  0  0  0  0  0  0  0  0  0  0  0
  -22.8300   14.7360  -20.5610 C   0  0  0  0  0  3  0  0  0  0  0  0
  -22.9780   15.6120  -21.5610 C   0  0  0  0  0  3  0  0  0  0  0  0
  -19.5210   17.8430  -25.9670 C   0  0  0  0  0  2  0  0  0  0  0  0
  -19.4610   19.2190  -26.3860 N   0  0  0  0  0  0  0  0  0  0  0  0
  -19.3880   19.4190  -27.3820 H   0  0  0  0  0  0  0  0  0  0  0  0
  -19.4980   20.2860  -25.4990 C   0  0  0  0  0  0  0  0  0  0  0  0
  -19.5850   20.1840  -24.2770 O   0  0  0  0  0  0  0  0  0  0  0  0
  -19.4160   21.6350  -26.1880 C   0  0  0  0  0  2  0  0  0  0  0  0
  -18.0880   22.2460  -25.9130 C   0  0  0  0  0  0  0  0  0  0  0  0
  -16.8140   21.6630  -26.4160 C   0  0  0  0  0  0  0  0  0  0  0  0
  -15.7770   22.4480  -25.9740 O   0  0  0  0  0  0  0  0  0  0  0  0
  -16.3660   23.4690  -25.2640 N   0  0  0  0  0  0  0  0  0  0  0  0
  -15.8230   24.1290  -24.7280 H   0  0  0  0  0  0  0  0  0  0  0  0
  -16.7100   20.6580  -27.0980 O   0  0  0  0  0  0  0  0  0  0  0  0
  -17.7160   23.3290  -25.2210 C   0  0  0  0  0  0  0  0  0  0  0  0
  -18.5550   24.2970  -24.4700 C   0  0  0  0  0  1  0  0  0  0  0  0
  1 24  1  6  0  0  0
  1 12  1  0  0  0  0
  2  3  2  0  0  0  0
  2 11  1  0  0  0  0
  3  4  1  0  0  0  0
  4 10  2  0  0  0  0
  4  5  1  0  0  0  0
  5  6  2  0  0  0  0
  6  7  1  0  0  0  0
  7  1  1  0  0  0  0
  8  7  2  0  0  0  0
  9  5  1  0  0  0  0
 10  8  1  0  0  0  0
 11  9  2  0  0  0  0
 12 13  1  0  0  0  0
 12 14  1  0  0  0  0
 14 16  1  0  0  0  0
 15 14  2  0  0  0  0
 16 17  2  0  0  0  0
 16 23  1  0  0  0  0
 17 18  1  0  0  0  0
 18 19  2  0  0  0  0
 18 20  1  0  0  0  0
 20 21  1  0  0  0  0
 22 20  1  0  0  0  0
 23 22  2  0  0  0  0
 25 24  1  0  0  0  0
 25 27  1  0  0  0  0
 26 25  1  0  0  0  0
 27 28  2  0  0  0  0
 29 30  1  0  0  0  0
 29 27  1  0  0  0  0
 30 36  2  0  0  0  0
 31 32  1  0  0  0  0
 31 30  1  0  0  0  0
 32 33  1  0  0  0  0
 33 36  1  0  0  0  0
 33 34  1  0  0  0  0
 35 31  2  0  0  0  0
 36 37  1  0  0  0  0
M  END
>  <VSCORE>
 -9.5

>  <MODEL>
1

>  <TORSDO>
F 7

$$$$
98
 OpenBabel08042114533D

 36 38  0  0  1  0  0  0  0  0999 V2000
  -21.0970   15.5580  -25.1420 C   0  0  1  0  0  3  0  0  0  0  0  0
  -22.2090   14.9210  -21.0280 C   0  0  0  0  0  3  0  0  0  0  0  0
  -22.7050   16.0240  -21.7220 C   0  0  0  0  0  3  0  0  0  0  0  0
  -22.3450   16.2300  -23.0540 C   0  0  0  0  0  3  0  0  0  0  0  0
  -21.4890   15.3330  -23.6920 C   0  0  0  0  0  0  0  0  0  0  0  0
  -20.9920   14.2290  -22.9980 C   0  0  0  0  0  3  0  0  0  0  0  0
  -21.3530   14.0230  -21.6660 C   0  0  0  0  0  3  0  0  0  0  0  0
  -20.1470   16.6410  -25.2530 N   0  0  0  0  0  0  0  0  0  0  0  0
  -19.1980   16.4710  -24.9350 H   0  0  0  0  0  0  0  0  0  0  0  0
  -20.4860   17.8630  -25.8100 C   0  0  0  0  0  0  0  0  0  0  0  0
  -21.5890   18.1600  -26.2560 O   0  0  0  0  0  0  0  0  0  0  0  0
  -19.3360   18.8080  -25.8130 C   0  0  0  0  0  3  0  0  0  0  0  0
  -19.5540   20.1300  -25.8540 C   0  0  0  0  0  3  0  0  0  0  0  0
  -18.4930   21.0970  -25.8620 C   0  0  0  0  0  0  0  0  0  0  0  0
  -18.6050   22.3290  -25.0390 C   0  0  0  0  0  0  0  0  0  0  0  0
  -19.5810   22.5680  -24.3350 O   0  0  0  0  0  0  0  0  0  0  0  0
  -17.5100   23.1670  -25.1480 N   0  0  0  0  0  0  0  0  0  0  0  0
  -17.5050   24.0330  -24.6180 H   0  0  0  0  0  0  0  0  0  0  0  0
  -16.4330   22.8650  -25.9500 C   0  0  0  0  0  3  0  0  0  0  0  0
  -16.3250   21.7970  -26.6700 N   0  0  0  0  0  0  0  0  0  0  0  0
  -17.3850   20.9260  -26.6010 C   0  0  0  0  0  3  0  0  0  0  0  0
  -20.5370   14.2980  -25.8210 C   0  0  0  0  0  2  0  0  0  0  0  0
  -20.5840   14.3900  -27.2560 N   0  0  0  0  0  0  0  0  0  0  0  0
  -19.7720   14.7580  -27.7490 H   0  0  0  0  0  0  0  0  0  0  0  0
  -21.6910   13.9960  -27.9990 C   0  0  0  0  0  0  0  0  0  0  0  0
  -22.7270   13.5380  -27.5250 O   0  0  0  0  0  0  0  0  0  0  0  0
  -21.4710   14.2070  -29.4850 C   0  0  0  0  0  2  0  0  0  0  0  0
  -22.1750   15.4230  -30.0250 C   0  0  0  0  0  0  0  0  0  0  0  0
  -22.2800   16.5810  -29.2720 C   0  0  0  0  0  3  0  0  0  0  0  0
  -22.8970   17.7070  -29.6960 N   0  0  0  0  0  0  0  0  0  0  0  0
  -23.4330   17.6670  -30.9370 C   0  0  0  0  0  3  0  0  0  0  0  0
  -23.3810   16.5590  -31.7680 C   0  0  0  0  0  0  0  0  0  0  0  0
  -22.7380   15.4200  -31.2970 C   0  0  0  0  0  3  0  0  0  0  0  0
  -23.9600   16.5850  -33.0480 N   0  0  0  0  0  0  0  0  0  0  0  0
  -24.9350   16.7970  -33.1430 H   0  0  0  0  0  0  0  0  0  0  0  0
  -23.3760   16.4850  -33.8560 H   0  0  0  0  0  0  0  0  0  0  0  0
  1 22  1  1  0  0  0
  1  5  1  0  0  0  0
  3  2  2  0  0  0  0
  4  3  1  0  0  0  0
  5  4  2  0  0  0  0
  5  6  1  0  0  0  0
  6  7  2  0  0  0  0
  7  2  1  0  0  0  0
  8  1  1  0  0  0  0
  8  9  1  0  0  0  0
 10  8  1  0  0  0  0
 11 10  2  0  0  0  0
 12 10  1  0  0  0  0
 13 12  2  0  0  0  0
 14 13  1  0  0  0  0
 14 15  1  0  0  0  0
 15 16  2  0  0  0  0
 17 15  1  0  0  0  0
 17 18  1  0  0  0  0
 19 17  1  0  0  0  0
 20 21  1  0  0  0  0
 20 19  2  0  0  0  0
 21 14  2  0  0  0  0
 23 22  1  0  0  0  0
 24 23  1  0  0  0  0
 25 26  2  0  0  0  0
 25 23  1  0  0  0  0
 27 25  1  0  0  0  0
 28 27  1  0  0  0  0
 28 29  1  0  0  0  0
 30 29  2  0  0  0  0
 31 30  1  0  0  0  0
 32 33  1  0  0  0  0
 32 31  2  0  0  0  0
 33 28  2  0  0  0  0
 34 32  1  0  0  0  0
 35 34  1  0  0  0  0
 36 34  1  0  0  0  0
M  END
>  <VSCORE>
 -8.5

>  <MODEL>
1

>  <TORSDO>
F 9

$$$$
99
 OpenBabel08042114533D

 36 38  0  0  1  0  0  0  0  0999 V2000
  -20.9890   15.5960  -24.8040 C   0  0  1  0  0  3  0  0  0  0  0  0
  -22.5710   15.1000  -20.8270 C   0  0  0  0  0  3  0  0  0  0  0  0
  -22.9120   16.2270  -21.5780 C   0  0  0  0  0  3  0  0  0  0  0  0
  -22.3990   16.3860  -22.8660 C   0  0  0  0  0  3  0  0  0  0  0  0
  -21.5470   15.4210  -23.4010 C   0  0  0  0  0  0  0  0  0  0  0  0
  -21.2080   14.2950  -22.6510 C   0  0  0  0  0  3  0  0  0  0  0  0
  -21.7210   14.1350  -21.3640 C   0  0  0  0  0  3  0  0  0  0  0  0
  -20.0950   16.7300  -24.8620 N   0  0  0  0  0  0  0  0  0  0  0  0
  -19.3890   16.8110  -24.1370 H   0  0  0  0  0  0  0  0  0  0  0  0
  -20.1530   17.6610  -25.8830 C   0  0  0  0  0  0  0  0  0  0  0  0
  -20.9400   17.6380  -26.8250 O   0  0  0  0  0  0  0  0  0  0  0  0
  -19.1270   18.7280  -25.7220 C   0  0  0  0  0  3  0  0  0  0  0  0
  -19.3880   19.9770  -26.1260 C   0  0  0  0  0  3  0  0  0  0  0  0
  -18.4440   21.0530  -26.0010 C   0  0  0  0  0  0  0  0  0  0  0  0
  -18.8170   22.2850  -25.2570 C   0  0  0  0  0  0  0  0  0  0  0  0
  -19.9160   22.4330  -24.7330 O   0  0  0  0  0  0  0  0  0  0  0  0
  -17.8100   23.2310  -25.2210 N   0  0  0  0  0  0  0  0  0  0  0  0
  -17.9820   24.1050  -24.7320 H   0  0  0  0  0  0  0  0  0  0  0  0
  -16.5900   23.0280  -25.8220 C   0  0  0  0  0  3  0  0  0  0  0  0
  -16.2540   21.9610  -26.4710 N   0  0  0  0  0  0  0  0  0  0  0  0
  -17.2170   20.9840  -26.5400 C   0  0  0  0  0  3  0  0  0  0  0  0
  -20.2800   14.3400  -25.3340 C   0  0  0  0  0  2  0  0  0  0  0  0
  -20.7810   13.9380  -26.6230 N   0  0  0  0  0  0  0  0  0  0  0  0
  -21.6370   13.3870  -26.6580 H   0  0  0  0  0  0  0  0  0  0  0  0
  -20.1580   14.2650  -27.8230 C   0  0  0  0  0  0  0  0  0  0  0  0
  -19.1250   14.9210  -27.9250 O   0  0  0  0  0  0  0  0  0  0  0  0
  -20.9080   13.7070  -29.0070 C   0  0  0  0  0  2  0  0  0  0  0  0
  -21.5950   14.7970  -29.7130 N   0  0  0  0  0  0  0  0  0  0  0  0
  -21.0150   16.0440  -29.7020 N   0  0  0  0  0  0  0  0  0  0  0  0
  -20.1380   16.1460  -29.2010 H   0  0  0  0  0  0  0  0  0  0  0  0
  -21.5850   17.1190  -30.3370 C   0  0  0  0  0  0  0  0  0  0  0  0
  -21.0930   18.2440  -30.3470 O   0  0  0  0  0  0  0  0  0  0  0  0
  -22.8600   16.8650  -31.0330 C   0  0  0  0  0  3  0  0  0  0  0  0
  -23.4120   15.6510  -31.0360 C   0  0  0  0  0  3  0  0  0  0  0  0
  -22.7730   14.5120  -30.3430 C   0  0  0  0  0  0  0  0  0  0  0  0
  -23.3240   13.4120  -30.3760 O   0  0  0  0  0  0  0  0  0  0  0  0
  1 22  1  1  0  0  0
  1  5  1  0  0  0  0
  3  2  2  0  0  0  0
  4  3  1  0  0  0  0
  5  4  2  0  0  0  0
  5  6  1  0  0  0  0
  6  7  2  0  0  0  0
  7  2  1  0  0  0  0
  8  1  1  0  0  0  0
  8  9  1  0  0  0  0
 10 12  1  0  0  0  0
 10  8  1  0  0  0  0
 11 10  2  0  0  0  0
 13 14  1  0  0  0  0
 13 12  2  0  0  0  0
 14 15  1  0  0  0  0
 15 17  1  0  0  0  0
 15 16  2  0  0  0  0
 17 18  1  0  0  0  0
 19 17  1  0  0  0  0
 20 19  2  0  0  0  0
 21 20  1  0  0  0  0
 21 14  2  0  0  0  0
 23 22  1  0  0  0  0
 24 23  1  0  0  0  0
 25 23  1  0  0  0  0
 26 25  2  0  0  0  0
 27 25  1  0  0  0  0
 28 29  1  0  0  0  0
 28 27  1  0  0  0  0
 29 30  1  0  0  0  0
 31 29  1  0  0  0  0
 32 31  2  0  0  0  0
 33 31  1  0  0  0  0
 34 33  2  0  0  0  0
 34 35  1  0  0  0  0
 35 28  1  0  0  0  0
 36 35  2  0  0  0  0
M  END
>  <VSCORE>
 -8.4

>  <MODEL>
1

>  <TORSDO>
F 8

$$$$
