37
  -OEChem-08042116223D

 50 53  0     1  0  0  0  0  0999 V2000
  -22.1087   12.6870  -29.8191 C   0  0  0  0  0  0  0  0  0  0  0  0
  -23.1976   13.3443  -29.2252 C   0  0  0  0  0  0  0  0  0  0  0  0
  -20.8206   13.2189  -29.7299 C   0  0  0  0  0  0  0  0  0  0  0  0
  -23.0143   14.5427  -28.5320 C   0  0  0  0  0  0  0  0  0  0  0  0
  -20.6492   14.4138  -29.0514 C   0  0  0  0  0  0  0  0  0  0  0  0
  -21.7345   15.0682  -28.4535 C   0  0  0  0  0  0  0  0  0  0  0  0
  -18.8850   23.0032  -25.2548 C   0  0  0  0  0  0  0  0  0  0  0  0
  -17.9208   22.8966  -26.1683 C   0  0  0  0  0  0  0  0  0  0  0  0
  -21.2421   15.8835  -21.3216 C   0  0  0  0  0  0  0  0  0  0  0  0
  -20.1356   16.1080  -23.6184 C   0  0  0  0  0  0  0  0  0  0  0  0
  -22.3058   16.4830  -21.8721 C   0  0  0  0  0  0  0  0  0  0  0  0
  -21.2769   16.6932  -24.0129 C   0  0  0  0  0  0  0  0  0  0  0  0
  -20.0518   15.6536  -22.1950 C   0  0  0  0  0  0  0  0  0  0  0  0
  -19.5794   21.8083  -24.7396 C   0  0  0  0  0  0  0  0  0  0  0  0
  -17.5054   21.5818  -26.7027 C   0  0  0  0  0  0  0  0  0  0  0  0
  -21.3776   17.1475  -25.4119 C   0  0  0  0  0  0  0  0  0  0  0  0
  -18.8705   18.6714  -27.6334 C   0  0  0  0  0  0  0  0  0  0  0  0
  -19.3702   15.1511  -28.7978 C   0  0  0  0  0  0  0  0  0  0  0  0
  -21.2894   16.3157  -27.7479 C   0  0  2  0  0  0  0  0  0  0  0  0
  -19.9074   16.5416  -28.4082 C   0  0  1  0  0  0  0  0  0  0  0  0
  -17.8121   19.1690  -26.6825 C   0  0  0  0  0  0  0  0  0  0  0  0
  -22.3474   16.8864  -23.1784 N   0  0  0  0  0  0  0  0  0  0  0  0
  -19.1754   20.6025  -25.2526 N   0  0  0  0  0  0  0  0  0  0  0  0
  -18.1771   20.5070  -26.1944 N   0  0  0  0  0  0  0  0  0  0  0  0
  -21.2273   16.1172  -26.3235 N   0  0  0  0  0  0  0  0  0  0  0  0
  -18.9766   17.2837  -27.6043 N   0  0  0  0  0  0  0  0  0  0  0  0
  -19.0411   15.1119  -21.7606 O   0  0  0  0  0  0  0  0  0  0  0  0
  -20.4663   21.9290  -23.8972 O   0  0  0  0  0  0  0  0  0  0  0  0
  -16.6093   21.5376  -27.5441 O   0  0  0  0  0  0  0  0  0  0  0  0
  -21.5769   18.3290  -25.6723 O   0  0  0  0  0  0  0  0  0  0  0  0
  -19.5488   19.4140  -28.3383 O   0  0  0  0  0  0  0  0  0  0  0  0
  -22.2706   11.7526  -30.3498 H   0  0  0  0  0  0  0  0  0  0  0  0
  -24.1918   12.9128  -29.3023 H   0  0  0  0  0  0  0  0  0  0  0  0
  -19.9797   12.7045  -30.1823 H   0  0  0  0  0  0  0  0  0  0  0  0
  -23.8564   15.0440  -28.0668 H   0  0  0  0  0  0  0  0  0  0  0  0
  -19.1839   23.9706  -24.8676 H   0  0  0  0  0  0  0  0  0  0  0  0
  -17.4124   23.7771  -26.5452 H   0  0  0  0  0  0  0  0  0  0  0  0
  -21.2131   15.5660  -20.2877 H   0  0  0  0  0  0  0  0  0  0  0  0
  -19.2800   15.9469  -24.2625 H   0  0  0  0  0  0  0  0  0  0  0  0
  -23.2107   16.6897  -21.3146 H   0  0  0  0  0  0  0  0  0  0  0  0
  -18.8264   14.6729  -27.9756 H   0  0  0  0  0  0  0  0  0  0  0  0
  -18.7375   15.2022  -29.6889 H   0  0  0  0  0  0  0  0  0  0  0  0
  -21.9589   17.1586  -27.9484 H   0  0  0  0  0  0  0  0  0  0  0  0
  -20.0530   17.1305  -29.3255 H   0  0  0  0  0  0  0  0  0  0  0  0
  -17.7299   18.4855  -25.8322 H   0  0  0  0  0  0  0  0  0  0  0  0
  -16.8481   19.2249  -27.1967 H   0  0  0  0  0  0  0  0  0  0  0  0
  -23.1844   17.3338  -23.5298 H   0  0  0  0  0  0  0  0  0  0  0  0
  -19.6097   19.7382  -24.9441 H   0  0  0  0  0  0  0  0  0  0  0  0
  -21.0654   15.1755  -25.9705 H   0  0  0  0  0  0  0  0  0  0  0  0
  -18.3602   16.7659  -26.9783 H   0  0  0  0  0  0  0  0  0  0  0  0
  1  2  1  0  0  0  0
  1  3  2  0  0  0  0
  2  4  2  0  0  0  0
  3  5  1  0  0  0  0
  4  6  1  0  0  0  0
  5  6  2  0  0  0  0
  5 18  1  0  0  0  0
  6 19  1  0  0  0  0
  7  8  2  0  0  0  0
  7 14  1  0  0  0  0
  8 15  1  0  0  0  0
  9 11  2  0  0  0  0
  9 13  1  0  0  0  0
 10 12  2  0  0  0  0
 10 13  1  0  0  0  0
 11 22  1  0  0  0  0
 12 16  1  0  0  0  0
 12 22  1  0  0  0  0
 13 27  2  0  0  0  0
 14 23  1  0  0  0  0
 14 28  2  0  0  0  0
 15 24  1  0  0  0  0
 15 29  2  0  0  0  0
 16 25  1  0  0  0  0
 16 30  2  0  0  0  0
 17 21  1  0  0  0  0
 17 26  1  0  0  0  0
 17 31  2  0  0  0  0
 18 20  1  0  0  0  0
 19 20  1  0  0  0  0
 19 25  1  0  0  0  0
 20 26  1  0  0  0  0
 21 24  1  0  0  0  0
 23 24  1  0  0  0  0
  1 32  1  0  0  0  0
  2 33  1  0  0  0  0
  3 34  1  0  0  0  0
  4 35  1  0  0  0  0
  7 36  1  0  0  0  0
  8 37  1  0  0  0  0
  9 38  1  0  0  0  0
 10 39  1  0  0  0  0
 11 40  1  0  0  0  0
 18 41  1  0  0  0  0
 18 42  1  0  0  0  0
 19 43  1  0  0  0  0
 20 44  1  0  0  0  0
 21 45  1  0  0  0  0
 21 46  1  0  0  0  0
 22 47  1  0  0  0  0
 23 48  1  0  0  0  0
 25 49  1  0  0  0  0
 26 50  1  0  0  0  0
M  END
> <FRED Chemgauss4 score>
-7.854108

$$$$
49
  -OEChem-08042116223D

 53 56  0     1  0  0  0  0  0999 V2000
  -21.5893   13.2224  -30.6971 C   0  0  0  0  0  0  0  0  0  0  0  0
  -22.8716   13.7737  -30.5469 C   0  0  0  0  0  0  0  0  0  0  0  0
  -20.4970   13.7631  -30.0154 C   0  0  0  0  0  0  0  0  0  0  0  0
  -23.0808   14.8731  -29.7116 C   0  0  0  0  0  0  0  0  0  0  0  0
  -20.7108   14.8607  -29.1986 C   0  0  0  0  0  0  0  0  0  0  0  0
  -21.9912   15.4086  -29.0436 C   0  0  0  0  0  0  0  0  0  0  0  0
  -21.6095   16.5573  -22.9919 C   0  0  0  0  0  0  0  0  0  0  0  0
  -20.5568   16.0420  -22.3428 C   0  0  0  0  0  0  0  0  0  0  0  0
  -17.5743   23.0873  -25.6024 C   0  0  0  0  0  0  0  0  0  0  0  0
  -18.6099   22.9367  -24.7776 C   0  0  0  0  0  0  0  0  0  0  0  0
  -22.0077   14.4999  -24.1641 C   0  0  0  0  0  0  0  0  0  0  0  0
  -22.3730   15.7712  -23.9407 C   0  0  0  0  0  0  0  0  0  0  0  0
  -20.1554   14.6280  -22.5950 C   0  0  0  0  0  0  0  0  0  0  0  0
  -17.0828   21.9615  -26.4188 C   0  0  0  0  0  0  0  0  0  0  0  0
  -19.3097   21.6407  -24.6455 C   0  0  0  0  0  0  0  0  0  0  0  0
  -23.0481   17.0786  -25.8987 C   0  0  0  0  0  0  0  0  0  0  0  0
  -19.9983   18.9271  -26.6968 C   0  0  0  0  0  0  0  0  0  0  0  0
  -19.7101   15.5830  -28.3497 C   0  0  0  0  0  0  0  0  0  0  0  0
  -21.9718   16.5601  -28.0814 C   0  0  2  0  0  0  0  0  0  0  0  0
  -20.4610   16.8987  -28.0692 C   0  0  1  0  0  0  0  0  0  0  0  0
  -23.5257   16.4251  -24.6164 C   0  0  0  0  0  0  0  0  0  0  0  0
  -19.4693   19.3150  -25.3397 C   0  0  0  0  0  0  0  0  0  0  0  0
  -20.9340   13.9437  -23.5137 N   0  0  0  0  0  0  0  0  0  0  0  0
  -17.7489   20.7715  -26.2763 N   0  0  0  0  0  0  0  0  0  0  0  0
  -18.8179   20.6305  -25.4218 N   0  0  0  0  0  0  0  0  0  0  0  0
  -22.4915   16.1759  -26.7952 N   0  0  0  0  0  0  0  0  0  0  0  0
  -20.0047   17.5459  -26.8707 N   0  0  0  0  0  0  0  0  0  0  0  0
  -19.1933   14.1411  -22.0070 O   0  0  0  0  0  0  0  0  0  0  0  0
  -16.1257   22.1220  -27.1732 O   0  0  0  0  0  0  0  0  0  0  0  0
  -20.2611   21.5543  -23.8707 O   0  0  0  0  0  0  0  0  0  0  0  0
  -23.1602   18.2877  -26.0941 O   0  0  0  0  0  0  0  0  0  0  0  0
  -20.3758   19.7431  -27.5335 O   0  0  0  0  0  0  0  0  0  0  0  0
  -21.4475   12.3636  -31.3477 H   0  0  0  0  0  0  0  0  0  0  0  0
  -23.7096   13.3367  -31.0829 H   0  0  0  0  0  0  0  0  0  0  0  0
  -19.5090   13.3299  -30.1265 H   0  0  0  0  0  0  0  0  0  0  0  0
  -24.0743   15.2916  -29.5908 H   0  0  0  0  0  0  0  0  0  0  0  0
  -21.9073   17.5854  -22.8133 H   0  0  0  0  0  0  0  0  0  0  0  0
  -19.9802   16.6227  -21.6329 H   0  0  0  0  0  0  0  0  0  0  0  0
  -17.0665   24.0407  -25.6940 H   0  0  0  0  0  0  0  0  0  0  0  0
  -18.9687   23.7663  -24.1785 H   0  0  0  0  0  0  0  0  0  0  0  0
  -22.5249   13.8469  -24.8564 H   0  0  0  0  0  0  0  0  0  0  0  0
  -19.5227   15.0108  -27.4342 H   0  0  0  0  0  0  0  0  0  0  0  0
  -18.7705   15.7642  -28.8800 H   0  0  0  0  0  0  0  0  0  0  0  0
  -22.5577   17.4088  -28.4491 H   0  0  0  0  0  0  0  0  0  0  0  0
  -20.2560   17.6010  -28.8903 H   0  0  0  0  0  0  0  0  0  0  0  0
  -23.9482   17.2071  -23.9775 H   0  0  0  0  0  0  0  0  0  0  0  0
  -24.3078   15.6838  -24.8044 H   0  0  0  0  0  0  0  0  0  0  0  0
  -20.2945   19.3658  -24.6233 H   0  0  0  0  0  0  0  0  0  0  0  0
  -18.7400   18.5737  -25.0002 H   0  0  0  0  0  0  0  0  0  0  0  0
  -20.7074   12.9761  -23.7240 H   0  0  0  0  0  0  0  0  0  0  0  0
  -17.4649   19.9536  -26.8067 H   0  0  0  0  0  0  0  0  0  0  0  0
  -22.4489   15.1940  -26.5297 H   0  0  0  0  0  0  0  0  0  0  0  0
  -19.6672   16.9620  -26.1059 H   0  0  0  0  0  0  0  0  0  0  0  0
  1  2  1  0  0  0  0
  1  3  2  0  0  0  0
  2  4  2  0  0  0  0
  3  5  1  0  0  0  0
  4  6  1  0  0  0  0
  5  6  2  0  0  0  0
  5 18  1  0  0  0  0
  6 19  1  0  0  0  0
  7  8  2  0  0  0  0
  7 12  1  0  0  0  0
  8 13  1  0  0  0  0
  9 10  2  0  0  0  0
  9 14  1  0  0  0  0
 10 15  1  0  0  0  0
 11 12  2  0  0  0  0
 11 23  1  0  0  0  0
 12 21  1  0  0  0  0
 13 23  1  0  0  0  0
 13 28  2  0  0  0  0
 14 24  1  0  0  0  0
 14 29  2  0  0  0  0
 15 25  1  0  0  0  0
 15 30  2  0  0  0  0
 16 21  1  0  0  0  0
 16 26  1  0  0  0  0
 16 31  2  0  0  0  0
 17 22  1  0  0  0  0
 17 27  1  0  0  0  0
 17 32  2  0  0  0  0
 18 20  1  0  0  0  0
 19 20  1  0  0  0  0
 19 26  1  0  0  0  0
 20 27  1  0  0  0  0
 22 25  1  0  0  0  0
 24 25  1  0  0  0  0
  1 33  1  0  0  0  0
  2 34  1  0  0  0  0
  3 35  1  0  0  0  0
  4 36  1  0  0  0  0
  7 37  1  0  0  0  0
  8 38  1  0  0  0  0
  9 39  1  0  0  0  0
 10 40  1  0  0  0  0
 11 41  1  0  0  0  0
 18 42  1  0  0  0  0
 18 43  1  0  0  0  0
 19 44  1  0  0  0  0
 20 45  1  0  0  0  0
 21 46  1  0  0  0  0
 21 47  1  0  0  0  0
 22 48  1  0  0  0  0
 22 49  1  0  0  0  0
 23 50  1  0  0  0  0
 24 51  1  0  0  0  0
 26 52  1  0  0  0  0
 27 53  1  0  0  0  0
M  END
> <FRED Chemgauss4 score>
-8.040554

$$$$
45
  -OEChem-08042116223D

 55 58  0     1  0  0  0  0  0999 V2000
  -19.1429   23.1181  -25.8785 C   0  0  0  0  0  0  0  0  0  0  0  0
  -20.0173   22.8087  -24.8409 C   0  0  0  0  0  0  0  0  0  0  0  0
  -18.6682   22.1086  -26.7164 C   0  0  0  0  0  0  0  0  0  0  0  0
  -20.4203   21.4887  -24.6371 C   0  0  0  0  0  0  0  0  0  0  0  0
  -18.5955   19.7457  -27.3597 C   0  0  0  0  0  0  0  0  0  0  0  0
  -18.9984   18.4256  -27.1560 C   0  0  0  0  0  0  0  0  0  0  0  0
  -20.3475   19.1257  -25.2804 C   0  0  0  0  0  0  0  0  0  0  0  0
  -19.0633   20.7744  -26.5260 C   0  0  0  0  0  0  0  0  0  0  0  0
  -19.9524   20.4598  -25.4708 C   0  0  0  0  0  0  0  0  0  0  0  0
  -19.8727   18.1162  -26.1183 C   0  0  0  0  0  0  0  0  0  0  0  0
  -22.7644   17.8956  -29.9163 C   0  0  0  0  0  0  0  0  0  0  0  0
  -23.2499   18.4132  -31.0531 C   0  0  0  0  0  0  0  0  0  0  0  0
  -22.1813   15.9005  -20.3012 C   0  0  0  0  0  0  0  0  0  0  0  0
  -22.3338   14.7530  -20.9610 C   0  0  0  0  0  0  0  0  0  0  0  0
  -23.5204   15.6843  -30.4975 C   0  0  0  0  0  0  0  0  0  0  0  0
  -22.9017   16.4893  -29.6250 C   0  0  0  0  0  0  0  0  0  0  0  0
  -23.9424   17.5239  -32.0324 C   0  0  0  0  0  0  0  0  0  0  0  0
  -20.9743   16.7282  -20.4846 C   0  0  0  0  0  0  0  0  0  0  0  0
  -21.3053   14.2613  -21.9030 C   0  0  0  0  0  0  0  0  0  0  0  0
  -22.3726   15.9052  -28.3789 C   0  0  0  0  0  0  0  0  0  0  0  0
  -19.5913   14.8598  -24.3837 C   0  0  0  0  0  0  0  0  0  0  0  0
  -19.1470   14.6326  -22.9613 C   0  0  0  0  0  0  0  0  0  0  0  0
  -21.8289   16.4814  -26.0276 C   0  0  0  0  0  0  0  0  0  0  0  0
  -20.3026   16.7043  -25.9022 C   0  0  2  0  0  0  0  0  0  0  0  0
  -24.0280   16.1881  -31.6708 N   0  0  0  0  0  0  0  0  0  0  0  0
  -20.0365   16.2486  -21.3626 N   0  0  0  0  0  0  0  0  0  0  0  0
  -20.2079   15.0626  -22.0386 N   0  0  0  0  0  0  0  0  0  0  0  0
  -22.3093   16.8193  -27.3421 N   0  0  0  0  0  0  0  0  0  0  0  0
  -19.8509   16.1886  -24.5931 N   0  0  0  0  0  0  0  0  0  0  0  0
  -24.3926   17.9850  -33.0782 O   0  0  0  0  0  0  0  0  0  0  0  0
  -20.8534   17.7833  -19.8659 O   0  0  0  0  0  0  0  0  0  0  0  0
  -21.4947   13.1961  -22.4881 O   0  0  0  0  0  0  0  0  0  0  0  0
  -22.0434   14.7250  -28.3327 O   0  0  0  0  0  0  0  0  0  0  0  0
  -19.6927   13.9588  -25.2121 O   0  0  0  0  0  0  0  0  0  0  0  0
  -18.8296   24.1458  -26.0361 H   0  0  0  0  0  0  0  0  0  0  0  0
  -20.3859   23.5950  -24.1887 H   0  0  0  0  0  0  0  0  0  0  0  0
  -17.9858   22.3740  -27.5213 H   0  0  0  0  0  0  0  0  0  0  0  0
  -21.1042   21.2699  -23.8195 H   0  0  0  0  0  0  0  0  0  0  0  0
  -17.9111   19.9645  -28.1770 H   0  0  0  0  0  0  0  0  0  0  0  0
  -18.6237   17.6452  -27.8130 H   0  0  0  0  0  0  0  0  0  0  0  0
  -21.0313   18.8701  -24.4725 H   0  0  0  0  0  0  0  0  0  0  0  0
  -22.2597   18.5324  -29.1977 H   0  0  0  0  0  0  0  0  0  0  0  0
  -23.1567   19.4662  -31.2898 H   0  0  0  0  0  0  0  0  0  0  0  0
  -22.9398   16.2546  -19.6124 H   0  0  0  0  0  0  0  0  0  0  0  0
  -23.2223   14.1467  -20.8237 H   0  0  0  0  0  0  0  0  0  0  0  0
  -23.6598   14.6204  -30.3475 H   0  0  0  0  0  0  0  0  0  0  0  0
  -18.9425   13.5694  -22.8046 H   0  0  0  0  0  0  0  0  0  0  0  0
  -18.2398   15.2096  -22.7595 H   0  0  0  0  0  0  0  0  0  0  0  0
  -22.0965   15.4317  -25.8613 H   0  0  0  0  0  0  0  0  0  0  0  0
  -22.3926   17.0849  -25.3083 H   0  0  0  0  0  0  0  0  0  0  0  0
  -19.8269   16.0512  -26.6585 H   0  0  0  0  0  0  0  0  0  0  0  0
  -24.4912   15.5468  -32.3082 H   0  0  0  0  0  0  0  0  0  0  0  0
  -19.1806   16.7657  -21.5379 H   0  0  0  0  0  0  0  0  0  0  0  0
  -22.6166   17.7746  -27.5167 H   0  0  0  0  0  0  0  0  0  0  0  0
  -19.7306   16.8311  -23.8346 H   0  0  0  0  0  0  0  0  0  0  0  0
  1  2  1  0  0  0  0
  1  3  2  0  0  0  0
  2  4  2  0  0  0  0
  3  8  1  0  0  0  0
  4  9  1  0  0  0  0
  5  6  2  0  0  0  0
  5  8  1  0  0  0  0
  6 10  1  0  0  0  0
  7  9  1  0  0  0  0
  7 10  2  0  0  0  0
  8  9  2  0  0  0  0
 10 24  1  0  0  0  0
 11 12  2  0  0  0  0
 11 16  1  0  0  0  0
 12 17  1  0  0  0  0
 13 14  2  0  0  0  0
 13 18  1  0  0  0  0
 14 19  1  0  0  0  0
 15 16  2  0  0  0  0
 15 25  1  0  0  0  0
 16 20  1  0  0  0  0
 17 25  1  0  0  0  0
 17 30  2  0  0  0  0
 18 26  1  0  0  0  0
 18 31  2  0  0  0  0
 19 27  1  0  0  0  0
 19 32  2  0  0  0  0
 20 28  1  0  0  0  0
 20 33  2  0  0  0  0
 21 22  1  0  0  0  0
 21 29  1  0  0  0  0
 21 34  2  0  0  0  0
 22 27  1  0  0  0  0
 23 24  1  0  0  0  0
 23 28  1  0  0  0  0
 24 29  1  0  0  0  0
 26 27  1  0  0  0  0
  1 35  1  0  0  0  0
  2 36  1  0  0  0  0
  3 37  1  0  0  0  0
  4 38  1  0  0  0  0
  5 39  1  0  0  0  0
  6 40  1  0  0  0  0
  7 41  1  0  0  0  0
 11 42  1  0  0  0  0
 12 43  1  0  0  0  0
 13 44  1  0  0  0  0
 14 45  1  0  0  0  0
 15 46  1  0  0  0  0
 22 47  1  0  0  0  0
 22 48  1  0  0  0  0
 23 49  1  0  0  0  0
 23 50  1  0  0  0  0
 24 51  1  0  0  0  0
 25 52  1  0  0  0  0
 26 53  1  0  0  0  0
 28 54  1  0  0  0  0
 29 55  1  0  0  0  0
M  END
> <FRED Chemgauss4 score>
-5.923644

$$$$
0
  -OEChem-08042116223D

 55 58  0     1  0  0  0  0  0999 V2000
  -20.5271   22.7416  -33.4426 C   0  0  0  0  0  0  0  0  0  0  0  0
  -21.8764   23.0215  -33.2480 C   0  0  0  0  0  0  0  0  0  0  0  0
  -19.9362   21.6612  -32.7868 C   0  0  0  0  0  0  0  0  0  0  0  0
  -22.6400   22.2221  -32.3969 C   0  0  0  0  0  0  0  0  0  0  0  0
  -20.1112   19.7544  -31.2584 C   0  0  0  0  0  0  0  0  0  0  0  0
  -20.8747   18.9551  -30.4072 C   0  0  0  0  0  0  0  0  0  0  0  0
  -22.8151   20.3154  -30.8683 C   0  0  0  0  0  0  0  0  0  0  0  0
  -20.6896   20.8460  -31.9265 C   0  0  0  0  0  0  0  0  0  0  0  0
  -22.0617   21.1306  -31.7286 C   0  0  0  0  0  0  0  0  0  0  0  0
  -22.2241   19.2350  -30.2126 C   0  0  0  0  0  0  0  0  0  0  0  0
  -18.1644   23.4878  -25.0899 C   0  0  0  0  0  0  0  0  0  0  0  0
  -19.1562   22.8597  -24.4598 C   0  0  0  0  0  0  0  0  0  0  0  0
  -21.1726   14.5942  -29.5123 C   0  0  0  0  0  0  0  0  0  0  0  0
  -23.2298   13.6770  -30.4237 C   0  0  0  0  0  0  0  0  0  0  0  0
  -20.6545   13.3685  -29.3733 C   0  0  0  0  0  0  0  0  0  0  0  0
  -22.5013   14.7409  -30.0550 C   0  0  0  0  0  0  0  0  0  0  0  0
  -17.5675   22.9270  -26.3167 C   0  0  0  0  0  0  0  0  0  0  0  0
  -19.7009   21.5793  -24.9606 C   0  0  0  0  0  0  0  0  0  0  0  0
  -22.6501   12.3078  -30.2681 C   0  0  0  0  0  0  0  0  0  0  0  0
  -23.1041   16.0759  -30.2228 C   0  0  0  0  0  0  0  0  0  0  0  0
  -20.9383   20.0602  -27.3294 C   0  0  0  0  0  0  0  0  0  0  0  0
  -19.6115   19.8328  -26.6511 C   0  0  0  0  0  0  0  0  0  0  0  0
  -23.0673   18.8656  -27.8335 C   0  0  0  0  0  0  0  0  0  0  0  0
  -23.0388   18.3791  -29.3024 C   0  0  2  0  0  0  0  0  0  0  0  0
  -21.3696   12.2555  -29.7395 N   0  0  0  0  0  0  0  0  0  0  0  0
  -18.0905   21.7389  -26.7584 N   0  0  0  0  0  0  0  0  0  0  0  0
  -19.1161   21.1020  -26.0986 N   0  0  0  0  0  0  0  0  0  0  0  0
  -22.5928   16.9705  -29.3301 N   0  0  0  0  0  0  0  0  0  0  0  0
  -21.7445   18.9289  -27.2686 N   0  0  0  0  0  0  0  0  0  0  0  0
  -16.6531   23.5225  -26.8823 O   0  0  0  0  0  0  0  0  0  0  0  0
  -20.6177   21.0402  -24.3426 O   0  0  0  0  0  0  0  0  0  0  0  0
  -23.2993   11.3189  -30.5992 O   0  0  0  0  0  0  0  0  0  0  0  0
  -23.9532   16.2742  -31.0848 O   0  0  0  0  0  0  0  0  0  0  0  0
  -21.2517   21.1215  -27.8622 O   0  0  0  0  0  0  0  0  0  0  0  0
  -19.9335   23.3646  -34.1050 H   0  0  0  0  0  0  0  0  0  0  0  0
  -22.3356   23.8630  -33.7584 H   0  0  0  0  0  0  0  0  0  0  0  0
  -18.8798   21.4612  -32.9545 H   0  0  0  0  0  0  0  0  0  0  0  0
  -23.6930   22.4598  -32.2594 H   0  0  0  0  0  0  0  0  0  0  0  0
  -19.0581   19.5172  -31.3955 H   0  0  0  0  0  0  0  0  0  0  0  0
  -20.4066   18.1156  -29.9001 H   0  0  0  0  0  0  0  0  0  0  0  0
  -23.8717   20.5233  -30.7075 H   0  0  0  0  0  0  0  0  0  0  0  0
  -17.7705   24.4263  -24.7169 H   0  0  0  0  0  0  0  0  0  0  0  0
  -19.5927   23.2745  -23.5580 H   0  0  0  0  0  0  0  0  0  0  0  0
  -20.6093   15.4742  -29.2238 H   0  0  0  0  0  0  0  0  0  0  0  0
  -24.2302   13.7527  -30.8343 H   0  0  0  0  0  0  0  0  0  0  0  0
  -19.6645   13.1906  -28.9732 H   0  0  0  0  0  0  0  0  0  0  0  0
  -19.7319   19.1092  -25.8394 H   0  0  0  0  0  0  0  0  0  0  0  0
  -18.8863   19.4485  -27.3743 H   0  0  0  0  0  0  0  0  0  0  0  0
  -23.4864   19.8751  -27.7528 H   0  0  0  0  0  0  0  0  0  0  0  0
  -23.6647   18.2068  -27.1942 H   0  0  0  0  0  0  0  0  0  0  0  0
  -24.0900   18.3642  -29.6484 H   0  0  0  0  0  0  0  0  0  0  0  0
  -20.9276   11.3497  -29.6123 H   0  0  0  0  0  0  0  0  0  0  0  0
  -17.7281   21.2945  -27.5963 H   0  0  0  0  0  0  0  0  0  0  0  0
  -21.8976   16.6655  -28.6769 H   0  0  0  0  0  0  0  0  0  0  0  0
  -21.3801   18.1015  -26.7998 H   0  0  0  0  0  0  0  0  0  0  0  0
  1  2  1  0  0  0  0
  1  3  2  0  0  0  0
  2  4  2  0  0  0  0
  3  8  1  0  0  0  0
  4  9  1  0  0  0  0
  5  6  2  0  0  0  0
  5  8  1  0  0  0  0
  6 10  1  0  0  0  0
  7  9  1  0  0  0  0
  7 10  2  0  0  0  0
  8  9  2  0  0  0  0
 10 24  1  0  0  0  0
 11 12  2  0  0  0  0
 11 17  1  0  0  0  0
 12 18  1  0  0  0  0
 13 15  2  0  0  0  0
 13 16  1  0  0  0  0
 14 16  2  0  0  0  0
 14 19  1  0  0  0  0
 15 25  1  0  0  0  0
 16 20  1  0  0  0  0
 17 26  1  0  0  0  0
 17 30  2  0  0  0  0
 18 27  1  0  0  0  0
 18 31  2  0  0  0  0
 19 25  1  0  0  0  0
 19 32  2  0  0  0  0
 20 28  1  0  0  0  0
 20 33  2  0  0  0  0
 21 22  1  0  0  0  0
 21 29  1  0  0  0  0
 21 34  2  0  0  0  0
 22 27  1  0  0  0  0
 23 24  1  0  0  0  0
 23 29  1  0  0  0  0
 24 28  1  0  0  0  0
 26 27  1  0  0  0  0
  1 35  1  0  0  0  0
  2 36  1  0  0  0  0
  3 37  1  0  0  0  0
  4 38  1  0  0  0  0
  5 39  1  0  0  0  0
  6 40  1  0  0  0  0
  7 41  1  0  0  0  0
 11 42  1  0  0  0  0
 12 43  1  0  0  0  0
 13 44  1  0  0  0  0
 14 45  1  0  0  0  0
 15 46  1  0  0  0  0
 22 47  1  0  0  0  0
 22 48  1  0  0  0  0
 23 49  1  0  0  0  0
 23 50  1  0  0  0  0
 24 51  1  0  0  0  0
 25 52  1  0  0  0  0
 26 53  1  0  0  0  0
 28 54  1  0  0  0  0
 29 55  1  0  0  0  0
M  END
> <FRED Chemgauss4 score>
-6.796926

$$$$
20
  -OEChem-08042116223D

 55 58  0     1  0  0  0  0  0999 V2000
  -22.2085   12.4782  -30.0445 C   0  0  0  0  0  0  0  0  0  0  0  0
  -21.1611   13.1803  -30.6615 C   0  0  0  0  0  0  0  0  0  0  0  0
  -22.5026   12.6791  -28.6942 C   0  0  0  0  0  0  0  0  0  0  0  0
  -20.3931   14.0948  -29.9376 C   0  0  0  0  0  0  0  0  0  0  0  0
  -20.0524   19.9021  -30.9854 C   0  0  0  0  0  0  0  0  0  0  0  0
  -21.7949   19.8858  -32.6041 C   0  0  0  0  0  0  0  0  0  0  0  0
  -22.1628   18.8882  -30.5675 C   0  0  0  0  0  0  0  0  0  0  0  0
  -21.7286   13.5786  -27.9804 C   0  0  0  0  0  0  0  0  0  0  0  0
  -20.6862   14.2840  -28.5964 C   0  0  0  0  0  0  0  0  0  0  0  0
  -20.5056   20.2517  -32.2526 C   0  0  0  0  0  0  0  0  0  0  0  0
  -20.8906   19.2072  -30.1206 C   0  0  0  0  0  0  0  0  0  0  0  0
  -21.5657   19.9740  -25.1683 C   0  0  0  0  0  0  0  0  0  0  0  0
  -22.5930   19.1765  -24.8784 C   0  0  0  0  0  0  0  0  0  0  0  0
  -20.1963   19.6371  -24.7360 C   0  0  0  0  0  0  0  0  0  0  0  0
  -22.4066   17.9237  -24.1152 C   0  0  0  0  0  0  0  0  0  0  0  0
  -19.7680   17.4525  -28.6930 C   0  0  0  0  0  0  0  0  0  0  0  0
  -20.9302   15.2358  -23.9021 C   0  0  0  0  0  0  0  0  0  0  0  0
  -21.8759   13.9807  -26.5451 C   0  0  0  0  0  0  0  0  0  0  0  0
  -20.0254   15.2224  -27.6295 C   0  0  2  0  0  0  0  0  0  0  0  0
  -20.5034   14.6293  -26.2816 C   0  0  1  0  0  0  0  0  0  0  0  0
  -19.6338   20.9961  -33.2005 C   0  0  0  0  0  0  0  0  0  0  0  0
  -20.4306   18.8158  -28.7413 C   0  0  0  0  0  0  0  0  0  0  0  0
  -20.8661   16.4243  -22.9773 C   0  0  0  0  0  0  0  0  0  0  0  0
  -22.6382   19.2106  -31.7913 N   0  0  0  0  0  0  0  0  0  0  0  0
  -20.0519   18.4709  -24.0293 N   0  0  0  0  0  0  0  0  0  0  0  0
  -21.1216   17.6560  -23.7384 N   0  0  0  0  0  0  0  0  0  0  0  0
  -20.4467   16.5813  -27.8484 N   0  0  0  0  0  0  0  0  0  0  0  0
  -20.5404   15.5695  -25.1962 N   0  0  0  0  0  0  0  0  0  0  0  0
  -19.2628   20.3869  -25.0137 O   0  0  0  0  0  0  0  0  0  0  0  0
  -23.3876   17.2218  -23.8745 O   0  0  0  0  0  0  0  0  0  0  0  0
  -18.7580   17.1666  -29.3309 O   0  0  0  0  0  0  0  0  0  0  0  0
  -21.2830   14.1163  -23.5405 O   0  0  0  0  0  0  0  0  0  0  0  0
  -22.7983   11.7746  -30.6259 H   0  0  0  0  0  0  0  0  0  0  0  0
  -20.9499   13.0130  -31.7141 H   0  0  0  0  0  0  0  0  0  0  0  0
  -23.3180   12.1418  -28.2223 H   0  0  0  0  0  0  0  0  0  0  0  0
  -19.5898   14.6422  -30.4191 H   0  0  0  0  0  0  0  0  0  0  0  0
  -19.0464   20.1704  -30.6719 H   0  0  0  0  0  0  0  0  0  0  0  0
  -22.2030   20.1316  -33.5798 H   0  0  0  0  0  0  0  0  0  0  0  0
  -22.8615   18.3471  -29.9367 H   0  0  0  0  0  0  0  0  0  0  0  0
  -21.7102   20.8908  -25.7285 H   0  0  0  0  0  0  0  0  0  0  0  0
  -23.5986   19.4271  -25.1975 H   0  0  0  0  0  0  0  0  0  0  0  0
  -22.6979   14.6983  -26.4463 H   0  0  0  0  0  0  0  0  0  0  0  0
  -22.0445   13.1215  -25.8891 H   0  0  0  0  0  0  0  0  0  0  0  0
  -18.9338   15.1846  -27.7059 H   0  0  0  0  0  0  0  0  0  0  0  0
  -19.7968   13.8431  -25.9782 H   0  0  0  0  0  0  0  0  0  0  0  0
  -19.0526   20.2990  -33.8188 H   0  0  0  0  0  0  0  0  0  0  0  0
  -20.2232   21.6401  -33.8682 H   0  0  0  0  0  0  0  0  0  0  0  0
  -18.9312   21.6537  -32.6691 H   0  0  0  0  0  0  0  0  0  0  0  0
  -19.7246   19.5658  -28.3627 H   0  0  0  0  0  0  0  0  0  0  0  0
  -21.2846   18.8150  -28.0521 H   0  0  0  0  0  0  0  0  0  0  0  0
  -21.6221   16.3222  -22.1931 H   0  0  0  0  0  0  0  0  0  0  0  0
  -19.8746   16.4845  -22.5189 H   0  0  0  0  0  0  0  0  0  0  0  0
  -19.1380   18.1764  -23.6995 H   0  0  0  0  0  0  0  0  0  0  0  0
  -21.2764   16.9186  -27.3644 H   0  0  0  0  0  0  0  0  0  0  0  0
  -20.2663   16.5336  -25.3837 H   0  0  0  0  0  0  0  0  0  0  0  0
  1  2  1  0  0  0  0
  1  3  2  0  0  0  0
  2  4  2  0  0  0  0
  3  8  1  0  0  0  0
  4  9  1  0  0  0  0
  5 10  1  0  0  0  0
  5 11  2  0  0  0  0
  6 10  2  0  0  0  0
  6 24  1  0  0  0  0
  7 11  1  0  0  0  0
  7 24  2  0  0  0  0
  8  9  2  0  0  0  0
  8 18  1  0  0  0  0
  9 19  1  0  0  0  0
 10 21  1  0  0  0  0
 11 22  1  0  0  0  0
 12 13  2  0  0  0  0
 12 14  1  0  0  0  0
 13 15  1  0  0  0  0
 14 25  1  0  0  0  0
 14 29  2  0  0  0  0
 15 26  1  0  0  0  0
 15 30  2  0  0  0  0
 16 22  1  0  0  0  0
 16 27  1  0  0  0  0
 16 31  2  0  0  0  0
 17 23  1  0  0  0  0
 17 28  1  0  0  0  0
 17 32  2  0  0  0  0
 18 20  1  0  0  0  0
 19 20  1  0  0  0  0
 19 27  1  0  0  0  0
 20 28  1  0  0  0  0
 23 26  1  0  0  0  0
 25 26  1  0  0  0  0
  1 33  1  0  0  0  0
  2 34  1  0  0  0  0
  3 35  1  0  0  0  0
  4 36  1  0  0  0  0
  5 37  1  0  0  0  0
  6 38  1  0  0  0  0
  7 39  1  0  0  0  0
 12 40  1  0  0  0  0
 13 41  1  0  0  0  0
 18 42  1  0  0  0  0
 18 43  1  0  0  0  0
 19 44  1  0  0  0  0
 20 45  1  0  0  0  0
 21 46  1  0  0  0  0
 21 47  1  0  0  0  0
 21 48  1  0  0  0  0
 22 49  1  0  0  0  0
 22 50  1  0  0  0  0
 23 51  1  0  0  0  0
 23 52  1  0  0  0  0
 25 53  1  0  0  0  0
 27 54  1  0  0  0  0
 28 55  1  0  0  0  0
M  END
> <FRED Chemgauss4 score>
-9.669885

$$$$
72
  -OEChem-08042116223D

 53 56  0     1  0  0  0  0  0999 V2000
  -22.1536   14.2237  -30.8257 C   0  0  0  0  0  0  0  0  0  0  0  0
  -22.9160   13.5543  -29.8554 C   0  0  0  0  0  0  0  0  0  0  0  0
  -21.6561   15.5055  -30.5811 C   0  0  0  0  0  0  0  0  0  0  0  0
  -23.1909   14.1562  -28.6257 C   0  0  0  0  0  0  0  0  0  0  0  0
  -21.9435   16.1002  -29.3640 C   0  0  0  0  0  0  0  0  0  0  0  0
  -22.6999   15.4309  -28.3926 C   0  0  0  0  0  0  0  0  0  0  0  0
  -19.2350   22.3047  -25.4118 C   0  0  0  0  0  0  0  0  0  0  0  0
  -17.9904   22.7689  -25.5863 C   0  0  0  0  0  0  0  0  0  0  0  0
  -20.6747   17.7094  -20.3734 C   0  0  0  0  0  0  0  0  0  0  0  0
  -20.9906   16.4187  -20.2754 C   0  0  0  0  0  0  0  0  0  0  0  0
  -18.8232   20.4096  -26.8273 C   0  0  0  0  0  0  0  0  0  0  0  0
  -19.6837   21.0825  -26.0488 C   0  0  0  0  0  0  0  0  0  0  0  0
  -17.0379   22.0165  -26.4528 C   0  0  0  0  0  0  0  0  0  0  0  0
  -20.4733   18.3449  -21.6891 C   0  0  0  0  0  0  0  0  0  0  0  0
  -21.1536   15.5703  -21.4756 C   0  0  0  0  0  0  0  0  0  0  0  0
  -21.5901   19.8825  -27.0104 C   0  0  0  0  0  0  0  0  0  0  0  0
  -22.1940   16.0173  -24.7563 C   0  0  0  0  0  0  0  0  0  0  0  0
  -21.4945   17.4401  -28.8674 C   0  0  0  0  0  0  0  0  0  0  0  0
  -22.8402   16.2627  -27.1515 C   0  0  2  0  0  0  0  0  0  0  0  0
  -22.4771   17.6635  -27.7019 C   0  0  1  0  0  0  0  0  0  0  0  0
  -21.0828   20.6424  -25.8001 C   0  0  0  0  0  0  0  0  0  0  0  0
  -21.1055   15.4183  -23.9027 C   0  0  0  0  0  0  0  0  0  0  0  0
  -17.5411   20.8597  -27.0248 N   0  0  0  0  0  0  0  0  0  0  0  0
  -20.6295   17.5355  -22.7849 N   0  0  0  0  0  0  0  0  0  0  0  0
  -20.9575   16.2044  -22.6690 N   0  0  0  0  0  0  0  0  0  0  0  0
  -21.9599   15.8015  -26.1102 N   0  0  0  0  0  0  0  0  0  0  0  0
  -21.9632   18.5757  -26.7184 N   0  0  0  0  0  0  0  0  0  0  0  0
  -15.8934   22.4287  -26.6217 O   0  0  0  0  0  0  0  0  0  0  0  0
  -20.1822   19.5371  -21.7571 O   0  0  0  0  0  0  0  0  0  0  0  0
  -21.4467   14.3845  -21.3309 O   0  0  0  0  0  0  0  0  0  0  0  0
  -21.6552   20.4004  -28.1240 O   0  0  0  0  0  0  0  0  0  0  0  0
  -23.1620   16.6162  -24.2952 O   0  0  0  0  0  0  0  0  0  0  0  0
  -21.9458   13.7367  -31.7746 H   0  0  0  0  0  0  0  0  0  0  0  0
  -23.2913   12.5560  -30.0629 H   0  0  0  0  0  0  0  0  0  0  0  0
  -21.0601   16.0169  -31.3291 H   0  0  0  0  0  0  0  0  0  0  0  0
  -23.7731   13.6331  -27.8745 H   0  0  0  0  0  0  0  0  0  0  0  0
  -19.9334   22.8470  -24.7825 H   0  0  0  0  0  0  0  0  0  0  0  0
  -17.6473   23.6819  -25.1147 H   0  0  0  0  0  0  0  0  0  0  0  0
  -20.5572   18.3250  -19.4889 H   0  0  0  0  0  0  0  0  0  0  0  0
  -21.1378   15.9544  -19.3065 H   0  0  0  0  0  0  0  0  0  0  0  0
  -19.0799   19.4896  -27.3382 H   0  0  0  0  0  0  0  0  0  0  0  0
  -20.4554   17.3768  -28.5257 H   0  0  0  0  0  0  0  0  0  0  0  0
  -21.5941   18.2191  -29.6291 H   0  0  0  0  0  0  0  0  0  0  0  0
  -23.8649   16.2499  -26.7657 H   0  0  0  0  0  0  0  0  0  0  0  0
  -23.3914   18.1283  -28.0987 H   0  0  0  0  0  0  0  0  0  0  0  0
  -21.7339   21.5094  -25.6503 H   0  0  0  0  0  0  0  0  0  0  0  0
  -21.1184   20.0327  -24.8926 H   0  0  0  0  0  0  0  0  0  0  0  0
  -21.3654   14.3876  -23.6439 H   0  0  0  0  0  0  0  0  0  0  0  0
  -20.1583   15.4266  -24.4497 H   0  0  0  0  0  0  0  0  0  0  0  0
  -16.9361   20.3059  -27.6239 H   0  0  0  0  0  0  0  0  0  0  0  0
  -20.5056   17.9053  -23.7223 H   0  0  0  0  0  0  0  0  0  0  0  0
  -21.1211   15.2899  -26.3791 H   0  0  0  0  0  0  0  0  0  0  0  0
  -21.8673   18.2483  -25.7581 H   0  0  0  0  0  0  0  0  0  0  0  0
  1  2  1  0  0  0  0
  1  3  2  0  0  0  0
  2  4  2  0  0  0  0
  3  5  1  0  0  0  0
  4  6  1  0  0  0  0
  5  6  2  0  0  0  0
  5 18  1  0  0  0  0
  6 19  1  0  0  0  0
  7  8  2  0  0  0  0
  7 12  1  0  0  0  0
  8 13  1  0  0  0  0
  9 10  2  0  0  0  0
  9 14  1  0  0  0  0
 10 15  1  0  0  0  0
 11 12  2  0  0  0  0
 11 23  1  0  0  0  0
 12 21  1  0  0  0  0
 13 23  1  0  0  0  0
 13 28  2  0  0  0  0
 14 24  1  0  0  0  0
 14 29  2  0  0  0  0
 15 25  1  0  0  0  0
 15 30  2  0  0  0  0
 16 21  1  0  0  0  0
 16 27  1  0  0  0  0
 16 31  2  0  0  0  0
 17 22  1  0  0  0  0
 17 26  1  0  0  0  0
 17 32  2  0  0  0  0
 18 20  1  0  0  0  0
 19 20  1  0  0  0  0
 19 26  1  0  0  0  0
 20 27  1  0  0  0  0
 22 25  1  0  0  0  0
 24 25  1  0  0  0  0
  1 33  1  0  0  0  0
  2 34  1  0  0  0  0
  3 35  1  0  0  0  0
  4 36  1  0  0  0  0
  7 37  1  0  0  0  0
  8 38  1  0  0  0  0
  9 39  1  0  0  0  0
 10 40  1  0  0  0  0
 11 41  1  0  0  0  0
 18 42  1  0  0  0  0
 18 43  1  0  0  0  0
 19 44  1  0  0  0  0
 20 45  1  0  0  0  0
 21 46  1  0  0  0  0
 21 47  1  0  0  0  0
 22 48  1  0  0  0  0
 22 49  1  0  0  0  0
 23 50  1  0  0  0  0
 24 51  1  0  0  0  0
 26 52  1  0  0  0  0
 27 53  1  0  0  0  0
M  END
> <FRED Chemgauss4 score>
-7.589620

$$$$
41
  -OEChem-08042116223D

 52 55  0     1  0  0  0  0  0999 V2000
  -22.8455   13.1650  -30.3187 C   0  0  0  0  0  0  0  0  0  0  0  0
  -23.2429   14.4960  -30.4457 C   0  0  0  0  0  0  0  0  0  0  0  0
  -21.7281   12.8411  -29.5492 C   0  0  0  0  0  0  0  0  0  0  0  0
  -22.5227   15.5031  -29.8033 C   0  0  0  0  0  0  0  0  0  0  0  0
  -21.0079   13.8482  -28.9068 C   0  0  0  0  0  0  0  0  0  0  0  0
  -20.0829   21.0625  -25.6697 C   0  0  0  0  0  0  0  0  0  0  0  0
  -17.0635   20.0799  -27.6938 C   0  0  0  0  0  0  0  0  0  0  0  0
  -16.5828   21.7449  -26.1369 C   0  0  0  0  0  0  0  0  0  0  0  0
  -19.8918   22.0424  -24.7225 C   0  0  0  0  0  0  0  0  0  0  0  0
  -18.8366   20.8382  -26.3183 C   0  0  0  0  0  0  0  0  0  0  0  0
  -18.4038   19.9852  -27.3434 C   0  0  0  0  0  0  0  0  0  0  0  0
  -21.4052   15.1793  -29.0338 C   0  0  0  0  0  0  0  0  0  0  0  0
  -17.9112   21.7047  -25.7340 C   0  0  0  0  0  0  0  0  0  0  0  0
  -21.2154   17.1596  -21.1517 C   0  0  0  0  0  0  0  0  0  0  0  0
  -21.3358   15.8372  -21.2616 C   0  0  0  0  0  0  0  0  0  0  0  0
  -20.6715   17.9680  -22.2591 C   0  0  0  0  0  0  0  0  0  0  0  0
  -20.9326   15.1248  -22.4932 C   0  0  0  0  0  0  0  0  0  0  0  0
  -19.2956   19.0522  -28.0042 C   0  0  0  0  0  0  0  0  0  0  0  0
  -20.8201   15.8279  -25.8900 C   0  0  0  0  0  0  0  0  0  0  0  0
  -20.0174   15.2714  -24.7420 C   0  0  0  0  0  0  0  0  0  0  0  0
  -19.4839   16.8497  -29.1943 C   0  0  0  0  0  0  0  0  0  0  0  0
  -20.6205   16.2755  -28.3342 C   0  0  2  0  0  0  0  0  0  0  0  0
  -16.1679   20.9203  -27.1266 N   0  0  0  0  0  0  0  0  0  0  0  0
  -18.5773   22.4237  -24.7693 N   0  0  0  0  0  0  0  0  0  0  0  0
  -20.3046   17.2824  -23.3885 N   0  0  0  0  0  0  0  0  0  0  0  0
  -20.4361   15.9165  -23.4889 N   0  0  0  0  0  0  0  0  0  0  0  0
  -18.7320   17.8657  -28.4936 N   0  0  0  0  0  0  0  0  0  0  0  0
  -20.0869   15.7970  -27.0531 N   0  0  0  0  0  0  0  0  0  0  0  0
  -20.5686   19.1867  -22.1368 O   0  0  0  0  0  0  0  0  0  0  0  0
  -21.0650   13.9030  -22.5444 O   0  0  0  0  0  0  0  0  0  0  0  0
  -20.5052   19.3179  -28.1418 O   0  0  0  0  0  0  0  0  0  0  0  0
  -21.9703   16.2421  -25.7723 O   0  0  0  0  0  0  0  0  0  0  0  0
  -23.4071   12.3808  -30.8179 H   0  0  0  0  0  0  0  0  0  0  0  0
  -24.1136   14.7483  -31.0439 H   0  0  0  0  0  0  0  0  0  0  0  0
  -21.4191   11.8048  -29.4492 H   0  0  0  0  0  0  0  0  0  0  0  0
  -22.8395   16.5375  -29.9080 H   0  0  0  0  0  0  0  0  0  0  0  0
  -20.1385   13.5865  -28.3094 H   0  0  0  0  0  0  0  0  0  0  0  0
  -21.0210   20.5633  -25.8709 H   0  0  0  0  0  0  0  0  0  0  0  0
  -16.6501   19.4528  -28.4792 H   0  0  0  0  0  0  0  0  0  0  0  0
  -15.8460   22.4067  -25.7010 H   0  0  0  0  0  0  0  0  0  0  0  0
  -20.5725   22.5031  -24.0205 H   0  0  0  0  0  0  0  0  0  0  0  0
  -21.5134   17.6749  -20.2457 H   0  0  0  0  0  0  0  0  0  0  0  0
  -21.7358   15.2457  -20.4455 H   0  0  0  0  0  0  0  0  0  0  0  0
  -20.1836   14.1929  -24.6648 H   0  0  0  0  0  0  0  0  0  0  0  0
  -18.9530   15.4630  -24.9064 H   0  0  0  0  0  0  0  0  0  0  0  0
  -18.7678   16.0639  -29.4606 H   0  0  0  0  0  0  0  0  0  0  0  0
  -19.8475   17.2961  -30.1259 H   0  0  0  0  0  0  0  0  0  0  0  0
  -21.3100   17.0974  -28.1011 H   0  0  0  0  0  0  0  0  0  0  0  0
  -18.1579   23.1306  -24.1812 H   0  0  0  0  0  0  0  0  0  0  0  0
  -19.9221   17.7742  -24.1901 H   0  0  0  0  0  0  0  0  0  0  0  0
  -17.7303   17.7249  -28.4123 H   0  0  0  0  0  0  0  0  0  0  0  0
  -19.1499   15.4330  -27.0249 H   0  0  0  0  0  0  0  0  0  0  0  0
  1  2  1  0  0  0  0
  1  3  2  0  0  0  0
  2  4  2  0  0  0  0
  3  5  1  0  0  0  0
  4 12  1  0  0  0  0
  5 12  2  0  0  0  0
  6  9  2  0  0  0  0
  6 10  1  0  0  0  0
  7 11  1  0  0  0  0
  7 23  2  0  0  0  0
  8 13  2  0  0  0  0
  8 23  1  0  0  0  0
  9 24  1  0  0  0  0
 10 11  2  0  0  0  0
 10 13  1  0  0  0  0
 11 18  1  0  0  0  0
 12 22  1  0  0  0  0
 13 24  1  0  0  0  0
 14 15  2  0  0  0  0
 14 16  1  0  0  0  0
 15 17  1  0  0  0  0
 16 25  1  0  0  0  0
 16 29  2  0  0  0  0
 17 26  1  0  0  0  0
 17 30  2  0  0  0  0
 18 27  1  0  0  0  0
 18 31  2  0  0  0  0
 19 20  1  0  0  0  0
 19 28  1  0  0  0  0
 19 32  2  0  0  0  0
 20 26  1  0  0  0  0
 21 22  1  0  0  0  0
 21 27  1  0  0  0  0
 22 28  1  0  0  0  0
 25 26  1  0  0  0  0
  1 33  1  0  0  0  0
  2 34  1  0  0  0  0
  3 35  1  0  0  0  0
  4 36  1  0  0  0  0
  5 37  1  0  0  0  0
  6 38  1  0  0  0  0
  7 39  1  0  0  0  0
  8 40  1  0  0  0  0
  9 41  1  0  0  0  0
 14 42  1  0  0  0  0
 15 43  1  0  0  0  0
 20 44  1  0  0  0  0
 20 45  1  0  0  0  0
 21 46  1  0  0  0  0
 21 47  1  0  0  0  0
 22 48  1  0  0  0  0
 24 49  1  0  0  0  0
 25 50  1  0  0  0  0
 27 51  1  0  0  0  0
 28 52  1  0  0  0  0
M  END
> <FRED Chemgauss4 score>
-9.620333

$$$$
38
  -OEChem-08042116223D

 54 57  0     1  0  0  0  0  0999 V2000
  -17.4425   24.0447  -24.6123 C   0  0  0  0  0  0  0  0  0  0  0  0
  -18.7428   23.8138  -24.1734 C   0  0  0  0  0  0  0  0  0  0  0  0
  -16.8545   23.1831  -25.5388 C   0  0  0  0  0  0  0  0  0  0  0  0
  -19.4602   22.7203  -24.6594 C   0  0  0  0  0  0  0  0  0  0  0  0
  -16.9857   21.2000  -26.9715 C   0  0  0  0  0  0  0  0  0  0  0  0
  -17.7030   20.1065  -27.4574 C   0  0  0  0  0  0  0  0  0  0  0  0
  -19.5914   20.7371  -26.0920 C   0  0  0  0  0  0  0  0  0  0  0  0
  -22.3187   17.3973  -31.8441 C   0  0  0  0  0  0  0  0  0  0  0  0
  -23.4219   19.5030  -31.9187 C   0  0  0  0  0  0  0  0  0  0  0  0
  -24.5371   17.6388  -32.6666 C   0  0  0  0  0  0  0  0  0  0  0  0
  -17.5617   22.0776  -26.0386 C   0  0  0  0  0  0  0  0  0  0  0  0
  -18.8841   21.8427  -25.5923 C   0  0  0  0  0  0  0  0  0  0  0  0
  -19.0033   19.8755  -27.0185 C   0  0  0  0  0  0  0  0  0  0  0  0
  -22.2917   18.7664  -31.6029 C   0  0  0  0  0  0  0  0  0  0  0  0
  -23.4590   16.8149  -32.3860 C   0  0  0  0  0  0  0  0  0  0  0  0
  -22.3409   14.6083  -27.4112 C   0  0  0  0  0  0  0  0  0  0  0  0
  -21.2153   13.4658  -29.2366 C   0  0  0  0  0  0  0  0  0  0  0  0
  -23.2468   13.6280  -27.3189 C   0  0  0  0  0  0  0  0  0  0  0  0
  -21.2981   14.5138  -28.4038 C   0  0  0  0  0  0  0  0  0  0  0  0
  -22.2279   12.3710  -29.1327 C   0  0  0  0  0  0  0  0  0  0  0  0
  -20.2828   15.5749  -28.5341 C   0  0  0  0  0  0  0  0  0  0  0  0
  -21.0842   19.4749  -29.5011 C   0  0  0  0  0  0  0  0  0  0  0  0
  -21.0720   19.4271  -31.0169 C   0  0  0  0  0  0  0  0  0  0  0  0
  -19.1185   17.3359  -27.2307 C   0  0  0  0  0  0  0  0  0  0  0  0
  -19.7688   18.7060  -27.5393 C   0  0  2  0  0  0  0  0  0  0  0  0
  -24.5480   18.9726  -32.4462 N   0  0  0  0  0  0  0  0  0  0  0  0
  -23.1948   12.5396  -28.1537 N   0  0  0  0  0  0  0  0  0  0  0  0
  -20.0659   16.2586  -27.3509 N   0  0  0  0  0  0  0  0  0  0  0  0
  -20.0001   18.8073  -28.9953 N   0  0  0  0  0  0  0  0  0  0  0  0
  -22.1716   11.4015  -29.8851 O   0  0  0  0  0  0  0  0  0  0  0  0
  -19.7246   15.7771  -29.6069 O   0  0  0  0  0  0  0  0  0  0  0  0
  -21.9550   20.0436  -28.8476 O   0  0  0  0  0  0  0  0  0  0  0  0
  -23.5132   15.5002  -32.6278 F   0  0  0  0  0  0  0  0  0  0  0  0
  -16.8848   24.8960  -24.2333 H   0  0  0  0  0  0  0  0  0  0  0  0
  -19.1996   24.4846  -23.4518 H   0  0  0  0  0  0  0  0  0  0  0  0
  -15.8368   23.3836  -25.8679 H   0  0  0  0  0  0  0  0  0  0  0  0
  -20.4753   22.5589  -24.3021 H   0  0  0  0  0  0  0  0  0  0  0  0
  -15.9703   21.3612  -27.3283 H   0  0  0  0  0  0  0  0  0  0  0  0
  -17.2374   19.4401  -28.1787 H   0  0  0  0  0  0  0  0  0  0  0  0
  -20.6095   20.5451  -25.7571 H   0  0  0  0  0  0  0  0  0  0  0  0
  -21.4571   16.7767  -31.6125 H   0  0  0  0  0  0  0  0  0  0  0  0
  -23.4598   20.5751  -31.7526 H   0  0  0  0  0  0  0  0  0  0  0  0
  -25.4499   17.2332  -33.0904 H   0  0  0  0  0  0  0  0  0  0  0  0
  -22.3803   15.4684  -26.7528 H   0  0  0  0  0  0  0  0  0  0  0  0
  -20.4452   13.3646  -29.9928 H   0  0  0  0  0  0  0  0  0  0  0  0
  -24.0530   13.6387  -26.5966 H   0  0  0  0  0  0  0  0  0  0  0  0
  -20.1711   18.8942  -31.3467 H   0  0  0  0  0  0  0  0  0  0  0  0
  -20.9861   20.4521  -31.3992 H   0  0  0  0  0  0  0  0  0  0  0  0
  -18.3046   17.1111  -27.9294 H   0  0  0  0  0  0  0  0  0  0  0  0
  -18.7053   17.2965  -26.2171 H   0  0  0  0  0  0  0  0  0  0  0  0
  -20.7753   18.6862  -27.0797 H   0  0  0  0  0  0  0  0  0  0  0  0
  -23.9078   11.8250  -28.0396 H   0  0  0  0  0  0  0  0  0  0  0  0
  -20.6008   15.9874  -26.5276 H   0  0  0  0  0  0  0  0  0  0  0  0
  -19.3513   18.3792  -29.6251 H   0  0  0  0  0  0  0  0  0  0  0  0
  1  2  1  0  0  0  0
  1  3  2  0  0  0  0
  2  4  2  0  0  0  0
  3 11  1  0  0  0  0
  4 12  1  0  0  0  0
  5  6  2  0  0  0  0
  5 11  1  0  0  0  0
  6 13  1  0  0  0  0
  7 12  1  0  0  0  0
  7 13  2  0  0  0  0
  8 14  1  0  0  0  0
  8 15  2  0  0  0  0
  9 14  2  0  0  0  0
  9 26  1  0  0  0  0
 10 15  1  0  0  0  0
 10 26  2  0  0  0  0
 11 12  2  0  0  0  0
 13 25  1  0  0  0  0
 14 23  1  0  0  0  0
 15 33  1  0  0  0  0
 16 18  2  0  0  0  0
 16 19  1  0  0  0  0
 17 19  2  0  0  0  0
 17 20  1  0  0  0  0
 18 27  1  0  0  0  0
 19 21  1  0  0  0  0
 20 27  1  0  0  0  0
 20 30  2  0  0  0  0
 21 28  1  0  0  0  0
 21 31  2  0  0  0  0
 22 23  1  0  0  0  0
 22 29  1  0  0  0  0
 22 32  2  0  0  0  0
 24 25  1  0  0  0  0
 24 28  1  0  0  0  0
 25 29  1  0  0  0  0
  1 34  1  0  0  0  0
  2 35  1  0  0  0  0
  3 36  1  0  0  0  0
  4 37  1  0  0  0  0
  5 38  1  0  0  0  0
  6 39  1  0  0  0  0
  7 40  1  0  0  0  0
  8 41  1  0  0  0  0
  9 42  1  0  0  0  0
 10 43  1  0  0  0  0
 16 44  1  0  0  0  0
 17 45  1  0  0  0  0
 18 46  1  0  0  0  0
 23 47  1  0  0  0  0
 23 48  1  0  0  0  0
 24 49  1  0  0  0  0
 24 50  1  0  0  0  0
 25 51  1  0  0  0  0
 27 52  1  0  0  0  0
 28 53  1  0  0  0  0
 29 54  1  0  0  0  0
M  END
> <FRED Chemgauss4 score>
-8.834811

$$$$
57
  -OEChem-08042116223D

 58 61  0     1  0  0  0  0  0999 V2000
  -22.2439   12.2603  -29.2252 C   0  0  0  0  0  0  0  0  0  0  0  0
  -23.3709   13.0760  -29.2609 C   0  0  0  0  0  0  0  0  0  0  0  0
  -21.0839   12.6992  -28.5863 C   0  0  0  0  0  0  0  0  0  0  0  0
  -23.3423   14.3337  -28.6576 C   0  0  0  0  0  0  0  0  0  0  0  0
  -19.8782   14.4200  -27.3262 C   0  0  0  0  0  0  0  0  0  0  0  0
  -19.8495   15.6777  -26.7231 C   0  0  0  0  0  0  0  0  0  0  0  0
  -22.1365   16.0546  -27.3977 C   0  0  0  0  0  0  0  0  0  0  0  0
  -21.0372   13.9621  -27.9738 C   0  0  0  0  0  0  0  0  0  0  0  0
  -22.1833   14.7916  -28.0101 C   0  0  0  0  0  0  0  0  0  0  0  0
  -20.9765   16.4934  -26.7587 C   0  0  0  0  0  0  0  0  0  0  0  0
  -23.1179   18.9918  -30.5634 C   0  0  0  0  0  0  0  0  0  0  0  0
  -24.0930   18.3046  -31.1734 C   0  0  0  0  0  0  0  0  0  0  0  0
  -22.3557   13.7905  -20.6652 C   0  0  0  0  0  0  0  0  0  0  0  0
  -23.0181   14.8875  -20.3005 C   0  0  0  0  0  0  0  0  0  0  0  0
  -21.4587   18.1689  -32.0915 C   0  0  0  0  0  0  0  0  0  0  0  0
  -21.7456   18.9322  -31.0264 C   0  0  0  0  0  0  0  0  0  0  0  0
  -23.7682   17.4579  -32.3573 C   0  0  0  0  0  0  0  0  0  0  0  0
  -21.2585   13.8567  -21.6488 C   0  0  0  0  0  0  0  0  0  0  0  0
  -22.6836   16.2140  -20.8621 C   0  0  0  0  0  0  0  0  0  0  0  0
  -20.1429   18.8788  -29.1751 C   0  0  0  0  0  0  0  0  0  0  0  0
  -21.7858   17.5843  -23.7804 C   0  0  0  0  0  0  0  0  0  0  0  0
  -20.7279   19.7269  -30.2877 C   0  0  0  0  0  0  0  0  0  0  0  0
  -21.2765   17.5109  -22.3636 C   0  0  0  0  0  0  0  0  0  0  0  0
  -19.8819   18.7969  -26.7019 C   0  0  0  0  0  0  0  0  0  0  0  0
  -20.9440   17.8377  -26.1131 C   0  0  2  0  0  0  0  0  0  0  0  0
  -22.4364   17.4537  -32.7380 N   0  0  0  0  0  0  0  0  0  0  0  0
  -20.9699   15.0983  -22.1542 N   0  0  0  0  0  0  0  0  0  0  0  0
  -21.6612   16.2232  -21.7673 N   0  0  0  0  0  0  0  0  0  0  0  0
  -20.3440   19.4226  -27.9134 N   0  0  0  0  0  0  0  0  0  0  0  0
  -20.7408   17.7390  -24.6527 N   0  0  0  0  0  0  0  0  0  0  0  0
  -24.6512   16.8228  -32.9277 O   0  0  0  0  0  0  0  0  0  0  0  0
  -20.6605   12.8325  -21.9715 O   0  0  0  0  0  0  0  0  0  0  0  0
  -23.3249   17.1961  -20.4916 O   0  0  0  0  0  0  0  0  0  0  0  0
  -19.5586   17.8205  -29.4016 O   0  0  0  0  0  0  0  0  0  0  0  0
  -22.9757   17.5098  -24.0756 O   0  0  0  0  0  0  0  0  0  0  0  0
  -22.2670   11.2817  -29.6953 H   0  0  0  0  0  0  0  0  0  0  0  0
  -24.2734   12.7339  -29.7589 H   0  0  0  0  0  0  0  0  0  0  0  0
  -20.2150   12.0443  -28.5707 H   0  0  0  0  0  0  0  0  0  0  0  0
  -24.2350   14.9547  -28.6981 H   0  0  0  0  0  0  0  0  0  0  0  0
  -18.9853   13.7991  -27.2863 H   0  0  0  0  0  0  0  0  0  0  0  0
  -18.9418   16.0120  -26.2277 H   0  0  0  0  0  0  0  0  0  0  0  0
  -23.0115   16.7025  -27.4181 H   0  0  0  0  0  0  0  0  0  0  0  0
  -23.3470   19.6101  -29.7014 H   0  0  0  0  0  0  0  0  0  0  0  0
  -25.1208   18.3429  -30.8333 H   0  0  0  0  0  0  0  0  0  0  0  0
  -22.6065   12.8215  -20.2489 H   0  0  0  0  0  0  0  0  0  0  0  0
  -23.8244   14.8354  -19.5773 H   0  0  0  0  0  0  0  0  0  0  0  0
  -20.4601   18.0705  -32.4992 H   0  0  0  0  0  0  0  0  0  0  0  0
  -21.1903   20.6079  -29.8313 H   0  0  0  0  0  0  0  0  0  0  0  0
  -19.9580   20.0722  -30.9838 H   0  0  0  0  0  0  0  0  0  0  0  0
  -20.1861   17.5984  -22.3590 H   0  0  0  0  0  0  0  0  0  0  0  0
  -21.7077   18.3237  -21.7719 H   0  0  0  0  0  0  0  0  0  0  0  0
  -19.6444   19.6093  -26.0057 H   0  0  0  0  0  0  0  0  0  0  0  0
  -18.9463   18.2787  -26.9378 H   0  0  0  0  0  0  0  0  0  0  0  0
  -21.9236   18.3361  -26.2433 H   0  0  0  0  0  0  0  0  0  0  0  0
  -22.1574   16.8952  -33.5392 H   0  0  0  0  0  0  0  0  0  0  0  0
  -20.2272   15.2188  -22.8358 H   0  0  0  0  0  0  0  0  0  0  0  0
  -20.8426   20.3072  -27.8415 H   0  0  0  0  0  0  0  0  0  0  0  0
  -19.8092   17.7869  -24.2889 H   0  0  0  0  0  0  0  0  0  0  0  0
  1  2  1  0  0  0  0
  1  3  2  0  0  0  0
  2  4  2  0  0  0  0
  3  8  1  0  0  0  0
  4  9  1  0  0  0  0
  5  6  2  0  0  0  0
  5  8  1  0  0  0  0
  6 10  1  0  0  0  0
  7  9  1  0  0  0  0
  7 10  2  0  0  0  0
  8  9  2  0  0  0  0
 10 25  1  0  0  0  0
 11 12  2  0  0  0  0
 11 16  1  0  0  0  0
 12 17  1  0  0  0  0
 13 14  2  0  0  0  0
 13 18  1  0  0  0  0
 14 19  1  0  0  0  0
 15 16  2  0  0  0  0
 15 26  1  0  0  0  0
 16 22  1  0  0  0  0
 17 26  1  0  0  0  0
 17 31  2  0  0  0  0
 18 27  1  0  0  0  0
 18 32  2  0  0  0  0
 19 28  1  0  0  0  0
 19 33  2  0  0  0  0
 20 22  1  0  0  0  0
 20 29  1  0  0  0  0
 20 34  2  0  0  0  0
 21 23  1  0  0  0  0
 21 30  1  0  0  0  0
 21 35  2  0  0  0  0
 23 28  1  0  0  0  0
 24 25  1  0  0  0  0
 24 29  1  0  0  0  0
 25 30  1  0  0  0  0
 27 28  1  0  0  0  0
  1 36  1  0  0  0  0
  2 37  1  0  0  0  0
  3 38  1  0  0  0  0
  4 39  1  0  0  0  0
  5 40  1  0  0  0  0
  6 41  1  0  0  0  0
  7 42  1  0  0  0  0
 11 43  1  0  0  0  0
 12 44  1  0  0  0  0
 13 45  1  0  0  0  0
 14 46  1  0  0  0  0
 15 47  1  0  0  0  0
 22 48  1  0  0  0  0
 22 49  1  0  0  0  0
 23 50  1  0  0  0  0
 23 51  1  0  0  0  0
 24 52  1  0  0  0  0
 24 53  1  0  0  0  0
 25 54  1  0  0  0  0
 26 55  1  0  0  0  0
 27 56  1  0  0  0  0
 29 57  1  0  0  0  0
 30 58  1  0  0  0  0
M  END
> <FRED Chemgauss4 score>
-6.755036

$$$$
34
  -OEChem-08042116223D

 57 60  0     1  0  0  0  0  0999 V2000
  -18.3358   24.3224  -24.5155 C   0  0  0  0  0  0  0  0  0  0  0  0
  -19.5569   23.8511  -24.0425 C   0  0  0  0  0  0  0  0  0  0  0  0
  -22.1152   12.7967  -30.1844 C   0  0  0  0  0  0  0  0  0  0  0  0
  -17.5573   23.5254  -25.3552 C   0  0  0  0  0  0  0  0  0  0  0  0
  -20.0041   22.5809  -24.4074 C   0  0  0  0  0  0  0  0  0  0  0  0
  -17.2211   21.4285  -26.5771 C   0  0  0  0  0  0  0  0  0  0  0  0
  -20.9989   12.9493  -29.3698 C   0  0  0  0  0  0  0  0  0  0  0  0
  -17.6683   20.1584  -26.9419 C   0  0  0  0  0  0  0  0  0  0  0  0
  -19.6680   20.4840  -25.6292 C   0  0  0  0  0  0  0  0  0  0  0  0
  -23.3158   13.3321  -29.7465 C   0  0  0  0  0  0  0  0  0  0  0  0
  -22.3607   14.1218  -27.8119 C   0  0  0  0  0  0  0  0  0  0  0  0
  -17.9918   22.2444  -25.7327 C   0  0  0  0  0  0  0  0  0  0  0  0
  -19.2335   21.7650  -25.2517 C   0  0  0  0  0  0  0  0  0  0  0  0
  -18.8894   19.6870  -26.4689 C   0  0  0  0  0  0  0  0  0  0  0  0
  -21.1155   13.6232  -28.1591 C   0  0  0  0  0  0  0  0  0  0  0  0
  -24.5899   17.4600  -31.8462 C   0  0  0  0  0  0  0  0  0  0  0  0
  -23.6884   16.4845  -31.7415 C   0  0  0  0  0  0  0  0  0  0  0  0
  -24.2599   18.8447  -31.4598 C   0  0  0  0  0  0  0  0  0  0  0  0
  -22.3232   16.7456  -31.2369 C   0  0  0  0  0  0  0  0  0  0  0  0
  -19.1481   15.0778  -27.5337 C   0  0  0  0  0  0  0  0  0  0  0  0
  -20.7881   18.5754  -28.8926 C   0  0  0  0  0  0  0  0  0  0  0  0
  -19.9252   13.8055  -27.2551 C   0  0  0  0  0  0  0  0  0  0  0  0
  -20.7267   18.3708  -30.3848 C   0  0  0  0  0  0  0  0  0  0  0  0
  -18.4290   17.1784  -26.4200 C   0  0  0  0  0  0  0  0  0  0  0  0
  -19.3659   18.3288  -26.8602 C   0  0  2  0  0  0  0  0  0  0  0  0
  -23.4678   13.9931  -28.5770 N   0  0  0  0  0  0  0  0  0  0  0  0
  -22.9879   19.0587  -30.9944 N   0  0  0  0  0  0  0  0  0  0  0  0
  -22.0665   18.0421  -30.8931 N   0  0  0  0  0  0  0  0  0  0  0  0
  -19.1088   15.9093  -26.4205 N   0  0  0  0  0  0  0  0  0  0  0  0
  -19.5948   18.2273  -28.3166 N   0  0  0  0  0  0  0  0  0  0  0  0
  -25.1065   19.7297  -31.5640 O   0  0  0  0  0  0  0  0  0  0  0  0
  -21.5279   15.8104  -31.1605 O   0  0  0  0  0  0  0  0  0  0  0  0
  -18.6203   15.3269  -28.6146 O   0  0  0  0  0  0  0  0  0  0  0  0
  -21.7823   18.9986  -28.3089 O   0  0  0  0  0  0  0  0  0  0  0  0
  -17.9884   25.3111  -24.2307 H   0  0  0  0  0  0  0  0  0  0  0  0
  -20.1621   24.4720  -23.3885 H   0  0  0  0  0  0  0  0  0  0  0  0
  -22.0478   12.2753  -31.1324 H   0  0  0  0  0  0  0  0  0  0  0  0
  -16.6063   23.9148  -25.7131 H   0  0  0  0  0  0  0  0  0  0  0  0
  -20.9618   22.2329  -24.0254 H   0  0  0  0  0  0  0  0  0  0  0  0
  -16.2632   21.7765  -26.9585 H   0  0  0  0  0  0  0  0  0  0  0  0
  -20.0431   12.5404  -29.6860 H   0  0  0  0  0  0  0  0  0  0  0  0
  -17.0556   19.5438  -27.5961 H   0  0  0  0  0  0  0  0  0  0  0  0
  -20.6215   20.1033  -25.2664 H   0  0  0  0  0  0  0  0  0  0  0  0
  -24.2158   13.2395  -30.3454 H   0  0  0  0  0  0  0  0  0  0  0  0
  -22.5127   14.6566  -26.8795 H   0  0  0  0  0  0  0  0  0  0  0  0
  -25.5888   17.2609  -32.2174 H   0  0  0  0  0  0  0  0  0  0  0  0
  -23.9343   15.4675  -32.0262 H   0  0  0  0  0  0  0  0  0  0  0  0
  -20.2564   13.8154  -26.2088 H   0  0  0  0  0  0  0  0  0  0  0  0
  -19.2459   12.9500  -27.3595 H   0  0  0  0  0  0  0  0  0  0  0  0
  -20.3727   19.2863  -30.8680 H   0  0  0  0  0  0  0  0  0  0  0  0
  -20.0424   17.5500  -30.6187 H   0  0  0  0  0  0  0  0  0  0  0  0
  -17.5762   17.0724  -27.1003 H   0  0  0  0  0  0  0  0  0  0  0  0
  -18.0310   17.3358  -25.4119 H   0  0  0  0  0  0  0  0  0  0  0  0
  -20.3484   18.1303  -26.3910 H   0  0  0  0  0  0  0  0  0  0  0  0
  -22.6912   19.9871  -30.7098 H   0  0  0  0  0  0  0  0  0  0  0  0
  -19.5803   15.6084  -25.5701 H   0  0  0  0  0  0  0  0  0  0  0  0
  -18.8538   17.8932  -28.9013 H   0  0  0  0  0  0  0  0  0  0  0  0
  1  2  1  0  0  0  0
  1  4  2  0  0  0  0
  2  5  2  0  0  0  0
  3  7  2  0  0  0  0
  3 10  1  0  0  0  0
  4 12  1  0  0  0  0
  5 13  1  0  0  0  0
  6  8  2  0  0  0  0
  6 12  1  0  0  0  0
  7 15  1  0  0  0  0
  8 14  1  0  0  0  0
  9 13  1  0  0  0  0
  9 14  2  0  0  0  0
 10 26  2  0  0  0  0
 11 15  2  0  0  0  0
 11 26  1  0  0  0  0
 12 13  2  0  0  0  0
 14 25  1  0  0  0  0
 15 22  1  0  0  0  0
 16 17  2  0  0  0  0
 16 18  1  0  0  0  0
 17 19  1  0  0  0  0
 18 27  1  0  0  0  0
 18 31  2  0  0  0  0
 19 28  1  0  0  0  0
 19 32  2  0  0  0  0
 20 22  1  0  0  0  0
 20 29  1  0  0  0  0
 20 33  2  0  0  0  0
 21 23  1  0  0  0  0
 21 30  1  0  0  0  0
 21 34  2  0  0  0  0
 23 28  1  0  0  0  0
 24 25  1  0  0  0  0
 24 29  1  0  0  0  0
 25 30  1  0  0  0  0
 27 28  1  0  0  0  0
  1 35  1  0  0  0  0
  2 36  1  0  0  0  0
  3 37  1  0  0  0  0
  4 38  1  0  0  0  0
  5 39  1  0  0  0  0
  6 40  1  0  0  0  0
  7 41  1  0  0  0  0
  8 42  1  0  0  0  0
  9 43  1  0  0  0  0
 10 44  1  0  0  0  0
 11 45  1  0  0  0  0
 16 46  1  0  0  0  0
 17 47  1  0  0  0  0
 22 48  1  0  0  0  0
 22 49  1  0  0  0  0
 23 50  1  0  0  0  0
 23 51  1  0  0  0  0
 24 52  1  0  0  0  0
 24 53  1  0  0  0  0
 25 54  1  0  0  0  0
 27 55  1  0  0  0  0
 29 56  1  0  0  0  0
 30 57  1  0  0  0  0
M  END
> <FRED Chemgauss4 score>
-6.970878

$$$$
32
  -OEChem-08042116223D

 55 58  0     1  0  0  0  0  0999 V2000
  -21.9270   14.7631  -22.3261 C   0  0  0  0  0  0  0  0  0  0  0  0
  -21.0357   13.7678  -22.7154 C   0  0  0  0  0  0  0  0  0  0  0  0
  -22.2991   15.7597  -23.2287 C   0  0  0  0  0  0  0  0  0  0  0  0
  -20.5130   13.7652  -24.0090 C   0  0  0  0  0  0  0  0  0  0  0  0
  -22.1464   16.7681  -25.4564 C   0  0  0  0  0  0  0  0  0  0  0  0
  -21.6236   16.7656  -26.7499 C   0  0  0  0  0  0  0  0  0  0  0  0
  -20.3601   14.7736  -26.2367 C   0  0  0  0  0  0  0  0  0  0  0  0
  -21.7829   15.7727  -24.5347 C   0  0  0  0  0  0  0  0  0  0  0  0
  -20.8764   14.7606  -24.9307 C   0  0  0  0  0  0  0  0  0  0  0  0
  -20.7322   15.7702  -27.1393 C   0  0  0  0  0  0  0  0  0  0  0  0
  -23.1942   17.6164  -30.8586 C   0  0  0  0  0  0  0  0  0  0  0  0
  -23.9808   18.2863  -31.7122 C   0  0  0  0  0  0  0  0  0  0  0  0
  -17.4606   22.7947  -25.2277 C   0  0  0  0  0  0  0  0  0  0  0  0
  -18.7836   22.6459  -25.1751 C   0  0  0  0  0  0  0  0  0  0  0  0
  -23.4204   15.5748  -32.1155 C   0  0  0  0  0  0  0  0  0  0  0  0
  -22.9026   16.2183  -31.0619 C   0  0  0  0  0  0  0  0  0  0  0  0
  -24.5639   17.5775  -32.8901 C   0  0  0  0  0  0  0  0  0  0  0  0
  -16.6550   22.0819  -26.2370 C   0  0  0  0  0  0  0  0  0  0  0  0
  -19.4998   21.7646  -26.1223 C   0  0  0  0  0  0  0  0  0  0  0  0
  -22.0390   15.4680  -30.1318 C   0  0  0  0  0  0  0  0  0  0  0  0
  -19.1086   18.8009  -27.6269 C   0  0  0  0  0  0  0  0  0  0  0  0
  -19.3601   20.2370  -28.0099 C   0  0  0  0  0  0  0  0  0  0  0  0
  -18.8480   16.5523  -28.6709 C   0  0  0  0  0  0  0  0  0  0  0  0
  -20.1746   15.7690  -28.5227 C   0  0  2  0  0  0  0  0  0  0  0  0
  -24.2302   16.2368  -33.0066 N   0  0  0  0  0  0  0  0  0  0  0  0
  -17.3439   21.2709  -27.1018 N   0  0  0  0  0  0  0  0  0  0  0  0
  -18.7108   21.1278  -27.0371 N   0  0  0  0  0  0  0  0  0  0  0  0
  -21.1478   16.2883  -29.5060 N   0  0  0  0  0  0  0  0  0  0  0  0
  -19.0742   17.9723  -28.7431 N   0  0  0  0  0  0  0  0  0  0  0  0
  -25.2868   18.1791  -33.6803 O   0  0  0  0  0  0  0  0  0  0  0  0
  -15.4357   22.2332  -26.2680 O   0  0  0  0  0  0  0  0  0  0  0  0
  -20.7223   21.6625  -26.0321 O   0  0  0  0  0  0  0  0  0  0  0  0
  -22.1722   14.2569  -29.9947 O   0  0  0  0  0  0  0  0  0  0  0  0
  -18.9530   18.4281  -26.4671 O   0  0  0  0  0  0  0  0  0  0  0  0
  -22.3332   14.7645  -21.3189 H   0  0  0  0  0  0  0  0  0  0  0  0
  -20.7462   12.9926  -22.0120 H   0  0  0  0  0  0  0  0  0  0  0  0
  -22.9977   16.5276  -22.9023 H   0  0  0  0  0  0  0  0  0  0  0  0
  -19.8174   12.9774  -24.2915 H   0  0  0  0  0  0  0  0  0  0  0  0
  -22.8415   17.5561  -25.1736 H   0  0  0  0  0  0  0  0  0  0  0  0
  -21.9184   17.5457  -27.4467 H   0  0  0  0  0  0  0  0  0  0  0  0
  -19.6621   14.0005  -26.5542 H   0  0  0  0  0  0  0  0  0  0  0  0
  -22.7656   18.1214  -29.9996 H   0  0  0  0  0  0  0  0  0  0  0  0
  -24.2114   19.3361  -31.5768 H   0  0  0  0  0  0  0  0  0  0  0  0
  -16.9426   23.4428  -24.5300 H   0  0  0  0  0  0  0  0  0  0  0  0
  -19.3730   23.1711  -24.4317 H   0  0  0  0  0  0  0  0  0  0  0  0
  -23.2451   14.5280  -32.3329 H   0  0  0  0  0  0  0  0  0  0  0  0
  -18.9493   20.4302  -29.0053 H   0  0  0  0  0  0  0  0  0  0  0  0
  -20.4357   20.4360  -28.0170 H   0  0  0  0  0  0  0  0  0  0  0  0
  -18.1866   16.3881  -27.8125 H   0  0  0  0  0  0  0  0  0  0  0  0
  -18.2985   16.2624  -29.5728 H   0  0  0  0  0  0  0  0  0  0  0  0
  -19.9618   14.7293  -28.8366 H   0  0  0  0  0  0  0  0  0  0  0  0
  -24.6050   15.7154  -33.7939 H   0  0  0  0  0  0  0  0  0  0  0  0
  -16.8541   20.7493  -27.8221 H   0  0  0  0  0  0  0  0  0  0  0  0
  -21.1529   17.2671  -29.7179 H   0  0  0  0  0  0  0  0  0  0  0  0
  -19.2166   18.3920  -29.6601 H   0  0  0  0  0  0  0  0  0  0  0  0
  1  2  1  0  0  0  0
  1  3  2  0  0  0  0
  2  4  2  0  0  0  0
  3  8  1  0  0  0  0
  4  9  1  0  0  0  0
  5  6  2  0  0  0  0
  5  8  1  0  0  0  0
  6 10  1  0  0  0  0
  7  9  1  0  0  0  0
  7 10  2  0  0  0  0
  8  9  2  0  0  0  0
 10 24  1  0  0  0  0
 11 12  2  0  0  0  0
 11 16  1  0  0  0  0
 12 17  1  0  0  0  0
 13 14  2  0  0  0  0
 13 18  1  0  0  0  0
 14 19  1  0  0  0  0
 15 16  2  0  0  0  0
 15 25  1  0  0  0  0
 16 20  1  0  0  0  0
 17 25  1  0  0  0  0
 17 30  2  0  0  0  0
 18 26  1  0  0  0  0
 18 31  2  0  0  0  0
 19 27  1  0  0  0  0
 19 32  2  0  0  0  0
 20 28  1  0  0  0  0
 20 33  2  0  0  0  0
 21 22  1  0  0  0  0
 21 29  1  0  0  0  0
 21 34  2  0  0  0  0
 22 27  1  0  0  0  0
 23 24  1  0  0  0  0
 23 29  1  0  0  0  0
 24 28  1  0  0  0  0
 26 27  1  0  0  0  0
  1 35  1  0  0  0  0
  2 36  1  0  0  0  0
  3 37  1  0  0  0  0
  4 38  1  0  0  0  0
  5 39  1  0  0  0  0
  6 40  1  0  0  0  0
  7 41  1  0  0  0  0
 11 42  1  0  0  0  0
 12 43  1  0  0  0  0
 13 44  1  0  0  0  0
 14 45  1  0  0  0  0
 15 46  1  0  0  0  0
 22 47  1  0  0  0  0
 22 48  1  0  0  0  0
 23 49  1  0  0  0  0
 23 50  1  0  0  0  0
 24 51  1  0  0  0  0
 25 52  1  0  0  0  0
 26 53  1  0  0  0  0
 28 54  1  0  0  0  0
 29 55  1  0  0  0  0
M  END
> <FRED Chemgauss4 score>
-8.007835

$$$$
52
  -OEChem-08042116223D

 53 55  0     1  0  0  0  0  0999 V2000
  -17.7794   23.8943  -25.1172 C   0  0  0  0  0  0  0  0  0  0  0  0
  -16.7995   23.1023  -25.7155 C   0  0  0  0  0  0  0  0  0  0  0  0
  -19.0735   23.3995  -24.9556 C   0  0  0  0  0  0  0  0  0  0  0  0
  -17.1136   21.8155  -26.1524 C   0  0  0  0  0  0  0  0  0  0  0  0
  -19.3877   22.1126  -25.3925 C   0  0  0  0  0  0  0  0  0  0  0  0
  -18.4077   21.3205  -25.9909 C   0  0  0  0  0  0  0  0  0  0  0  0
  -20.3642   13.8952  -23.3958 C   0  0  0  0  0  0  0  0  0  0  0  0
  -21.1879   14.4250  -24.2993 C   0  0  0  0  0  0  0  0  0  0  0  0
  -21.6008   14.1346  -30.0879 C   0  0  0  0  0  0  0  0  0  0  0  0
  -22.3227   14.6358  -29.0765 C   0  0  0  0  0  0  0  0  0  0  0  0
  -19.5456   14.7528  -22.5183 C   0  0  0  0  0  0  0  0  0  0  0  0
  -21.3181   15.8891  -24.4609 C   0  0  0  0  0  0  0  0  0  0  0  0
  -23.3325   13.7440  -28.4266 C   0  0  0  0  0  0  0  0  0  0  0  0
  -22.6529   11.9536  -30.0116 C   0  0  0  0  0  0  0  0  0  0  0  0
  -22.1488   15.9842  -28.6139 C   0  0  0  0  0  0  0  0  0  0  0  0
  -20.9802   16.6344  -28.6842 C   0  0  0  0  0  0  0  0  0  0  0  0
  -20.8730   18.0328  -28.1838 C   0  0  0  0  0  0  0  0  0  0  0  0
  -19.3963   18.6289  -24.4341 C   0  0  0  0  0  0  0  0  0  0  0  0
  -20.6230   18.1035  -23.7332 C   0  0  0  0  0  0  0  0  0  0  0  0
  -19.2424   19.8775  -27.9219 C   0  0  0  0  0  0  0  0  0  0  0  0
  -18.7505   19.9195  -26.4666 C   0  0  2  0  0  0  0  0  0  0  0  0
  -21.7472   12.8542  -30.5470 N   0  0  0  0  0  0  0  0  0  0  0  0
  -23.4121   12.4615  -28.9562 N   0  0  0  0  0  0  0  0  0  0  0  0
  -19.6850   16.1061  -22.6897 N   0  0  0  0  0  0  0  0  0  0  0  0
  -20.5407   16.6395  -23.6257 N   0  0  0  0  0  0  0  0  0  0  0  0
  -19.5940   18.5399  -28.3382 N   0  0  0  0  0  0  0  0  0  0  0  0
  -19.7451   19.2987  -25.5834 N   0  0  0  0  0  0  0  0  0  0  0  0
  -18.7920   14.2435  -21.6916 O   0  0  0  0  0  0  0  0  0  0  0  0
  -22.0935   16.3277  -25.3091 O   0  0  0  0  0  0  0  0  0  0  0  0
  -24.0348   14.1295  -27.4950 O   0  0  0  0  0  0  0  0  0  0  0  0
  -22.7804   10.8026  -30.4299 O   0  0  0  0  0  0  0  0  0  0  0  0
  -21.8230   18.6352  -27.6942 O   0  0  0  0  0  0  0  0  0  0  0  0
  -18.2548   18.4672  -24.0108 O   0  0  0  0  0  0  0  0  0  0  0  0
  -17.5343   24.8959  -24.7758 H   0  0  0  0  0  0  0  0  0  0  0  0
  -15.7915   23.4871  -25.8403 H   0  0  0  0  0  0  0  0  0  0  0  0
  -19.8365   24.0154  -24.4889 H   0  0  0  0  0  0  0  0  0  0  0  0
  -16.3437   21.2055  -26.6176 H   0  0  0  0  0  0  0  0  0  0  0  0
  -20.3986   21.7354  -25.2627 H   0  0  0  0  0  0  0  0  0  0  0  0
  -20.2744   12.8208  -23.2831 H   0  0  0  0  0  0  0  0  0  0  0  0
  -21.7882   13.7917  -24.9431 H   0  0  0  0  0  0  0  0  0  0  0  0
  -20.8492   14.7156  -30.6114 H   0  0  0  0  0  0  0  0  0  0  0  0
  -23.0343   16.4542  -28.1968 H   0  0  0  0  0  0  0  0  0  0  0  0
  -20.0953   16.1633  -29.1010 H   0  0  0  0  0  0  0  0  0  0  0  0
  -20.6874   18.5352  -22.7300 H   0  0  0  0  0  0  0  0  0  0  0  0
  -21.5184   18.3721  -24.3013 H   0  0  0  0  0  0  0  0  0  0  0  0
  -20.1464   20.4857  -28.0405 H   0  0  0  0  0  0  0  0  0  0  0  0
  -18.4949   20.2541  -28.6282 H   0  0  0  0  0  0  0  0  0  0  0  0
  -17.8443   19.3030  -26.4032 H   0  0  0  0  0  0  0  0  0  0  0  0
  -21.1623   12.5487  -31.3191 H   0  0  0  0  0  0  0  0  0  0  0  0
  -24.0890   11.8322  -28.5338 H   0  0  0  0  0  0  0  0  0  0  0  0
  -19.1522   16.7566  -22.1207 H   0  0  0  0  0  0  0  0  0  0  0  0
  -18.8576   17.9582  -28.7274 H   0  0  0  0  0  0  0  0  0  0  0  0
  -20.7182   19.3658  -25.8279 H   0  0  0  0  0  0  0  0  0  0  0  0
  1  2  1  0  0  0  0
  1  3  2  0  0  0  0
  2  4  2  0  0  0  0
  3  5  1  0  0  0  0
  4  6  1  0  0  0  0
  5  6  2  0  0  0  0
  6 21  1  0  0  0  0
  7  8  2  0  0  0  0
  7 11  1  0  0  0  0
  8 12  1  0  0  0  0
  9 10  2  0  0  0  0
  9 22  1  0  0  0  0
 10 13  1  0  0  0  0
 10 15  1  0  0  0  0
 11 24  1  0  0  0  0
 11 28  2  0  0  0  0
 12 25  1  0  0  0  0
 12 29  2  0  0  0  0
 13 23  1  0  0  0  0
 13 30  2  0  0  0  0
 14 22  1  0  0  0  0
 14 23  1  0  0  0  0
 14 31  2  0  0  0  0
 15 16  2  0  0  0  0
 16 17  1  0  0  0  0
 17 26  1  0  0  0  0
 17 32  2  0  0  0  0
 18 19  1  0  0  0  0
 18 27  1  0  0  0  0
 18 33  2  0  0  0  0
 19 25  1  0  0  0  0
 20 21  1  0  0  0  0
 20 26  1  0  0  0  0
 21 27  1  0  0  0  0
 24 25  1  0  0  0  0
  1 34  1  0  0  0  0
  2 35  1  0  0  0  0
  3 36  1  0  0  0  0
  4 37  1  0  0  0  0
  5 38  1  0  0  0  0
  7 39  1  0  0  0  0
  8 40  1  0  0  0  0
  9 41  1  0  0  0  0
 15 42  1  0  0  0  0
 16 43  1  0  0  0  0
 19 44  1  0  0  0  0
 19 45  1  0  0  0  0
 20 46  1  0  0  0  0
 20 47  1  0  0  0  0
 21 48  1  0  0  0  0
 22 49  1  0  0  0  0
 23 50  1  0  0  0  0
 24 51  1  0  0  0  0
 26 52  1  0  0  0  0
 27 53  1  0  0  0  0
M  END
> <FRED Chemgauss4 score>
-5.696177

$$$$
40
  -OEChem-08042116223D

 60 63  0     1  0  0  0  0  0999 V2000
  -21.7714   12.7349  -29.1352 C   0  0  0  0  0  0  0  0  0  0  0  0
  -22.7939   13.6652  -29.2964 C   0  0  0  0  0  0  0  0  0  0  0  0
  -20.6765   13.0340  -28.3239 C   0  0  0  0  0  0  0  0  0  0  0  0
  -22.7255   14.8980  -28.6469 C   0  0  0  0  0  0  0  0  0  0  0  0
  -19.4964   14.5878  -26.8421 C   0  0  0  0  0  0  0  0  0  0  0  0
  -19.4279   15.8207  -26.1927 C   0  0  0  0  0  0  0  0  0  0  0  0
  -21.5453   16.4520  -27.1652 C   0  0  0  0  0  0  0  0  0  0  0  0
  -21.5467   19.3270  -30.6218 C   0  0  0  0  0  0  0  0  0  0  0  0
  -23.3209   20.6307  -31.5214 C   0  0  0  0  0  0  0  0  0  0  0  0
  -21.5757   21.7008  -30.4787 C   0  0  0  0  0  0  0  0  0  0  0  0
  -20.5910   14.2700  -27.6626 C   0  0  0  0  0  0  0  0  0  0  0  0
  -21.6308   15.2159  -27.8265 C   0  0  0  0  0  0  0  0  0  0  0  0
  -20.4504   16.7509  -26.3539 C   0  0  0  0  0  0  0  0  0  0  0  0
  -22.7623   19.3832  -31.2944 C   0  0  0  0  0  0  0  0  0  0  0  0
  -20.9355   20.5035  -30.2027 C   0  0  0  0  0  0  0  0  0  0  0  0
  -20.9955   13.5749  -21.0630 C   0  0  0  0  0  0  0  0  0  0  0  0
  -22.0863   14.2516  -20.7057 C   0  0  0  0  0  0  0  0  0  0  0  0
  -19.8907   14.2382  -21.7808 C   0  0  0  0  0  0  0  0  0  0  0  0
  -22.2366   15.6908  -21.0104 C   0  0  0  0  0  0  0  0  0  0  0  0
  -19.7666   20.3858  -27.9672 C   0  0  0  0  0  0  0  0  0  0  0  0
  -21.5634   17.8490  -23.4781 C   0  0  0  0  0  0  0  0  0  0  0  0
  -23.4410   18.1429  -31.7567 C   0  0  0  0  0  0  0  0  0  0  0  0
  -19.6181   20.4767  -29.4738 C   0  0  0  0  0  0  0  0  0  0  0  0
  -21.2719   17.6885  -22.0079 C   0  0  0  0  0  0  0  0  0  0  0  0
  -19.1490   18.9246  -26.0557 C   0  0  0  0  0  0  0  0  0  0  0  0
  -20.3755   18.0685  -25.6586 C   0  0  2  0  0  0  0  0  0  0  0  0
  -22.7569   21.7951  -31.1295 N   0  0  0  0  0  0  0  0  0  0  0  0
  -20.0563   15.5722  -22.0513 N   0  0  0  0  0  0  0  0  0  0  0  0
  -21.1875   16.2589  -21.6750 N   0  0  0  0  0  0  0  0  0  0  0  0
  -19.1561   19.2448  -27.4593 N   0  0  0  0  0  0  0  0  0  0  0  0
  -20.3941   17.9140  -24.1891 N   0  0  0  0  0  0  0  0  0  0  0  0
  -18.8933   13.5954  -22.1014 O   0  0  0  0  0  0  0  0  0  0  0  0
  -23.2629   16.2698  -20.6579 O   0  0  0  0  0  0  0  0  0  0  0  0
  -20.3536   21.2272  -27.2917 O   0  0  0  0  0  0  0  0  0  0  0  0
  -22.7002   17.9071  -23.9393 O   0  0  0  0  0  0  0  0  0  0  0  0
  -21.8254   11.7757  -29.6413 H   0  0  0  0  0  0  0  0  0  0  0  0
  -23.6457   13.4318  -29.9285 H   0  0  0  0  0  0  0  0  0  0  0  0
  -19.8891   12.2912  -28.2123 H   0  0  0  0  0  0  0  0  0  0  0  0
  -23.5362   15.6101  -28.7877 H   0  0  0  0  0  0  0  0  0  0  0  0
  -18.6855   13.8758  -26.7019 H   0  0  0  0  0  0  0  0  0  0  0  0
  -18.5714   16.0458  -25.5628 H   0  0  0  0  0  0  0  0  0  0  0  0
  -22.3386   17.1885  -27.2826 H   0  0  0  0  0  0  0  0  0  0  0  0
  -21.0760   18.3671  -30.4236 H   0  0  0  0  0  0  0  0  0  0  0  0
  -24.2681   20.7365  -32.0417 H   0  0  0  0  0  0  0  0  0  0  0  0
  -21.1463   22.6512  -30.1765 H   0  0  0  0  0  0  0  0  0  0  0  0
  -20.8925   12.5200  -20.8359 H   0  0  0  0  0  0  0  0  0  0  0  0
  -22.8969   13.7609  -20.1784 H   0  0  0  0  0  0  0  0  0  0  0  0
  -24.1161   17.7600  -30.9798 H   0  0  0  0  0  0  0  0  0  0  0  0
  -24.0298   18.3219  -32.6674 H   0  0  0  0  0  0  0  0  0  0  0  0
  -22.7151   17.3546  -32.0018 H   0  0  0  0  0  0  0  0  0  0  0  0
  -19.0223   19.6236  -29.8225 H   0  0  0  0  0  0  0  0  0  0  0  0
  -19.0425   21.3792  -29.7153 H   0  0  0  0  0  0  0  0  0  0  0  0
  -20.3206   18.1714  -21.7659 H   0  0  0  0  0  0  0  0  0  0  0  0
  -22.0713   18.1478  -21.4190 H   0  0  0  0  0  0  0  0  0  0  0  0
  -19.1366   19.8811  -25.5206 H   0  0  0  0  0  0  0  0  0  0  0  0
  -18.2045   18.4131  -25.8417 H   0  0  0  0  0  0  0  0  0  0  0  0
  -21.2712   18.6700  -25.9050 H   0  0  0  0  0  0  0  0  0  0  0  0
  -19.3365   16.0930  -22.5428 H   0  0  0  0  0  0  0  0  0  0  0  0
  -18.6948   18.6092  -28.1069 H   0  0  0  0  0  0  0  0  0  0  0  0
  -19.5241   17.8550  -23.6971 H   0  0  0  0  0  0  0  0  0  0  0  0
  1  2  1  0  0  0  0
  1  3  2  0  0  0  0
  2  4  2  0  0  0  0
  3 11  1  0  0  0  0
  4 12  1  0  0  0  0
  5  6  2  0  0  0  0
  5 11  1  0  0  0  0
  6 13  1  0  0  0  0
  7 12  1  0  0  0  0
  7 13  2  0  0  0  0
  8 14  1  0  0  0  0
  8 15  2  0  0  0  0
  9 14  2  0  0  0  0
  9 27  1  0  0  0  0
 10 15  1  0  0  0  0
 10 27  2  0  0  0  0
 11 12  2  0  0  0  0
 13 26  1  0  0  0  0
 14 22  1  0  0  0  0
 15 23  1  0  0  0  0
 16 17  2  0  0  0  0
 16 18  1  0  0  0  0
 17 19  1  0  0  0  0
 18 28  1  0  0  0  0
 18 32  2  0  0  0  0
 19 29  1  0  0  0  0
 19 33  2  0  0  0  0
 20 23  1  0  0  0  0
 20 30  1  0  0  0  0
 20 34  2  0  0  0  0
 21 24  1  0  0  0  0
 21 31  1  0  0  0  0
 21 35  2  0  0  0  0
 24 29  1  0  0  0  0
 25 26  1  0  0  0  0
 25 30  1  0  0  0  0
 26 31  1  0  0  0  0
 28 29  1  0  0  0  0
  1 36  1  0  0  0  0
  2 37  1  0  0  0  0
  3 38  1  0  0  0  0
  4 39  1  0  0  0  0
  5 40  1  0  0  0  0
  6 41  1  0  0  0  0
  7 42  1  0  0  0  0
  8 43  1  0  0  0  0
  9 44  1  0  0  0  0
 10 45  1  0  0  0  0
 16 46  1  0  0  0  0
 17 47  1  0  0  0  0
 22 48  1  0  0  0  0
 22 49  1  0  0  0  0
 22 50  1  0  0  0  0
 23 51  1  0  0  0  0
 23 52  1  0  0  0  0
 24 53  1  0  0  0  0
 24 54  1  0  0  0  0
 25 55  1  0  0  0  0
 25 56  1  0  0  0  0
 26 57  1  0  0  0  0
 28 58  1  0  0  0  0
 30 59  1  0  0  0  0
 31 60  1  0  0  0  0
M  END
> <FRED Chemgauss4 score>
-8.774745

$$$$
21
  -OEChem-08042116223D

 51 53  0     1  0  0  0  0  0999 V2000
  -23.6836   16.7632  -20.8942 C   0  0  0  0  0  0  0  0  0  0  0  0
  -24.0379   17.5040  -22.0217 C   0  0  0  0  0  0  0  0  0  0  0  0
  -22.6246   15.8576  -20.9592 C   0  0  0  0  0  0  0  0  0  0  0  0
  -23.3334   17.3392  -23.2142 C   0  0  0  0  0  0  0  0  0  0  0  0
  -21.9201   15.6927  -22.1518 C   0  0  0  0  0  0  0  0  0  0  0  0
  -22.2745   16.4335  -23.2793 C   0  0  0  0  0  0  0  0  0  0  0  0
  -17.1912   21.0749  -26.4207 C   0  0  0  0  0  0  0  0  0  0  0  0
  -16.0396   22.9319  -25.8633 C   0  0  0  0  0  0  0  0  0  0  0  0
  -18.2836   21.4114  -25.7180 C   0  0  0  0  0  0  0  0  0  0  0  0
  -18.2703   22.6959  -24.9703 C   0  0  0  0  0  0  0  0  0  0  0  0
  -20.8693   17.0473  -30.1756 C   0  0  0  0  0  0  0  0  0  0  0  0
  -22.1797   15.1950  -30.0085 C   0  0  0  0  0  0  0  0  0  0  0  0
  -19.4464   20.5697  -25.6761 C   0  0  0  0  0  0  0  0  0  0  0  0
  -19.4214   19.3138  -25.2120 C   0  0  0  0  0  0  0  0  0  0  0  0
  -20.6670   18.4978  -25.1994 C   0  0  0  0  0  0  0  0  0  0  0  0
  -21.4857   13.9930  -27.0304 C   0  0  0  0  0  0  0  0  0  0  0  0
  -20.1578   16.1282  -29.2069 C   0  0  0  0  0  0  0  0  0  0  0  0
  -20.8540   13.8159  -28.3875 C   0  0  0  0  0  0  0  0  0  0  0  0
  -20.9343   14.8379  -24.7509 C   0  0  0  0  0  0  0  0  0  0  0  0
  -21.5071   16.2533  -24.5776 C   0  0  2  0  0  0  0  0  0  0  0  0
  -16.0393   21.8175  -26.5176 N   0  0  0  0  0  0  0  0  0  0  0  0
  -17.0877   23.3992  -25.1042 N   0  0  0  0  0  0  0  0  0  0  0  0
  -22.0265   16.4360  -30.5912 N   0  0  0  0  0  0  0  0  0  0  0  0
  -21.0726   15.0249  -29.1949 N   0  0  0  0  0  0  0  0  0  0  0  0
  -20.4489   17.2304  -24.6869 N   0  0  0  0  0  0  0  0  0  0  0  0
  -20.5959   14.5548  -26.1213 N   0  0  0  0  0  0  0  0  0  0  0  0
  -19.2242   23.0828  -24.3022 O   0  0  0  0  0  0  0  0  0  0  0  0
  -20.4577   18.1479  -30.5138 O   0  0  0  0  0  0  0  0  0  0  0  0
  -23.1117   14.4228  -30.1902 O   0  0  0  0  0  0  0  0  0  0  0  0
  -21.7426   18.9258  -25.6060 O   0  0  0  0  0  0  0  0  0  0  0  0
  -22.6453   13.6767  -26.7783 O   0  0  0  0  0  0  0  0  0  0  0  0
  -24.2313   16.8927  -19.9654 H   0  0  0  0  0  0  0  0  0  0  0  0
  -24.8617   18.2100  -21.9710 H   0  0  0  0  0  0  0  0  0  0  0  0
  -22.3477   15.2814  -20.0813 H   0  0  0  0  0  0  0  0  0  0  0  0
  -23.6167   17.9205  -24.0878 H   0  0  0  0  0  0  0  0  0  0  0  0
  -21.0966   14.9847  -22.1932 H   0  0  0  0  0  0  0  0  0  0  0  0
  -17.1639   20.1438  -26.9799 H   0  0  0  0  0  0  0  0  0  0  0  0
  -15.1700   23.6067  -25.8697 H   0  0  0  0  0  0  0  0  0  0  0  0
  -20.3627   21.0177  -26.0487 H   0  0  0  0  0  0  0  0  0  0  0  0
  -18.5047   18.8666  -24.8402 H   0  0  0  0  0  0  0  0  0  0  0  0
  -19.1878   15.8170  -29.6000 H   0  0  0  0  0  0  0  0  0  0  0  0
  -20.0887   16.5790  -28.2149 H   0  0  0  0  0  0  0  0  0  0  0  0
  -19.7789   13.6479  -28.2744 H   0  0  0  0  0  0  0  0  0  0  0  0
  -21.3030   12.9580  -28.8965 H   0  0  0  0  0  0  0  0  0  0  0  0
  -20.0094   14.7236  -24.1743 H   0  0  0  0  0  0  0  0  0  0  0  0
  -21.6302   14.0603  -24.4186 H   0  0  0  0  0  0  0  0  0  0  0  0
  -22.1951   16.4391  -25.4128 H   0  0  0  0  0  0  0  0  0  0  0  0
  -16.9935   24.2897  -24.6248 H   0  0  0  0  0  0  0  0  0  0  0  0
  -22.6852   16.8451  -31.2439 H   0  0  0  0  0  0  0  0  0  0  0  0
  -19.5158   16.9489  -24.4006 H   0  0  0  0  0  0  0  0  0  0  0  0
  -19.6553   14.7778  -26.4419 H   0  0  0  0  0  0  0  0  0  0  0  0
  1  2  1  0  0  0  0
  1  3  2  0  0  0  0
  2  4  2  0  0  0  0
  3  5  1  0  0  0  0
  4  6  1  0  0  0  0
  5  6  2  0  0  0  0
  6 20  1  0  0  0  0
  7  9  2  0  0  0  0
  7 21  1  0  0  0  0
  8 21  2  0  0  0  0
  8 22  1  0  0  0  0
  9 10  1  0  0  0  0
  9 13  1  0  0  0  0
 10 22  1  0  0  0  0
 10 27  2  0  0  0  0
 11 17  1  0  0  0  0
 11 23  1  0  0  0  0
 11 28  2  0  0  0  0
 12 23  1  0  0  0  0
 12 24  1  0  0  0  0
 12 29  2  0  0  0  0
 13 14  2  0  0  0  0
 14 15  1  0  0  0  0
 15 25  1  0  0  0  0
 15 30  2  0  0  0  0
 16 18  1  0  0  0  0
 16 26  1  0  0  0  0
 16 31  2  0  0  0  0
 17 24  1  0  0  0  0
 18 24  1  0  0  0  0
 19 20  1  0  0  0  0
 19 26  1  0  0  0  0
 20 25  1  0  0  0  0
  1 32  1  0  0  0  0
  2 33  1  0  0  0  0
  3 34  1  0  0  0  0
  4 35  1  0  0  0  0
  5 36  1  0  0  0  0
  7 37  1  0  0  0  0
  8 38  1  0  0  0  0
 13 39  1  0  0  0  0
 14 40  1  0  0  0  0
 17 41  1  0  0  0  0
 17 42  1  0  0  0  0
 18 43  1  0  0  0  0
 18 44  1  0  0  0  0
 19 45  1  0  0  0  0
 19 46  1  0  0  0  0
 20 47  1  0  0  0  0
 22 48  1  0  0  0  0
 23 49  1  0  0  0  0
 25 50  1  0  0  0  0
 26 51  1  0  0  0  0
M  END
> <FRED Chemgauss4 score>
-8.509699

$$$$
9
  -OEChem-08042116223D

 56 59  0     1  0  0  0  0  0999 V2000
  -19.7828   21.1590  -32.3854 C   0  0  0  0  0  0  0  0  0  0  0  0
  -19.7789   19.9796  -33.1452 C   0  0  0  0  0  0  0  0  0  0  0  0
  -20.6915   21.3269  -31.3393 C   0  0  0  0  0  0  0  0  0  0  0  0
  -20.6822   18.9506  -32.8686 C   0  0  0  0  0  0  0  0  0  0  0  0
  -20.4281   14.5114  -30.0030 C   0  0  0  0  0  0  0  0  0  0  0  0
  -22.3780   13.5844  -29.0053 C   0  0  0  0  0  0  0  0  0  0  0  0
  -20.4429   13.6891  -27.7714 C   0  0  0  0  0  0  0  0  0  0  0  0
  -21.5751   20.2961  -31.0638 C   0  0  0  0  0  0  0  0  0  0  0  0
  -21.5711   19.1143  -31.8168 C   0  0  0  0  0  0  0  0  0  0  0  0
  -21.7702   14.1635  -30.1076 C   0  0  0  0  0  0  0  0  0  0  0  0
  -19.7444   14.2729  -28.8160 C   0  0  0  0  0  0  0  0  0  0  0  0
  -21.6719   14.6237  -24.0951 C   0  0  0  0  0  0  0  0  0  0  0  0
  -21.3546   15.7147  -24.8074 C   0  0  0  0  0  0  0  0  0  0  0  0
  -20.0281   16.3405  -24.5767 C   0  0  0  0  0  0  0  0  0  0  0  0
  -19.7164   14.5676  -22.9564 C   0  0  0  0  0  0  0  0  0  0  0  0
  -22.2567   16.2795  -25.7716 C   0  0  0  0  0  0  0  0  0  0  0  0
  -21.8411   16.9346  -26.8631 C   0  0  0  0  0  0  0  0  0  0  0  0
  -22.8344   17.4953  -27.8204 C   0  0  0  0  0  0  0  0  0  0  0  0
  -23.2087   15.7686  -31.4237 C   0  0  0  0  0  0  0  0  0  0  0  0
  -22.6550   20.2729  -30.0265 C   0  0  0  0  0  0  0  0  0  0  0  0
  -22.6581   18.1875  -31.3501 C   0  0  2  0  0  0  0  0  0  0  0  0
  -22.9853   18.7694  -29.9504 C   0  0  1  0  0  0  0  0  0  0  0  0
  -18.7648   13.9855  -21.9517 C   0  0  0  0  0  0  0  0  0  0  0  0
  -22.5388   14.4087  -31.3791 C   0  0  0  0  0  0  0  0  0  0  0  0
  -21.7467   13.3373  -27.8357 N   0  0  0  0  0  0  0  0  0  0  0  0
  -20.8739   14.0182  -23.1560 N   0  0  0  0  0  0  0  0  0  0  0  0
  -19.2682   15.6902  -23.6217 N   0  0  0  0  0  0  0  0  0  0  0  0
  -22.2258   18.1391  -28.8895 N   0  0  0  0  0  0  0  0  0  0  0  0
  -22.2822   16.8008  -31.3278 N   0  0  0  0  0  0  0  0  0  0  0  0
  -19.6537   17.3398  -25.1827 O   0  0  0  0  0  0  0  0  0  0  0  0
  -24.0455   17.3890  -27.6554 O   0  0  0  0  0  0  0  0  0  0  0  0
  -24.4221   15.9234  -31.5354 O   0  0  0  0  0  0  0  0  0  0  0  0
  -18.4354   14.6015  -28.6850 O   0  0  0  0  0  0  0  0  0  0  0  0
  -19.0690   21.9460  -32.6117 H   0  0  0  0  0  0  0  0  0  0  0  0
  -19.0623   19.8642  -33.9539 H   0  0  0  0  0  0  0  0  0  0  0  0
  -20.7011   22.2437  -30.7594 H   0  0  0  0  0  0  0  0  0  0  0  0
  -20.6825   18.0438  -33.4660 H   0  0  0  0  0  0  0  0  0  0  0  0
  -19.9128   14.9678  -30.8442 H   0  0  0  0  0  0  0  0  0  0  0  0
  -23.4234   13.2922  -29.0282 H   0  0  0  0  0  0  0  0  0  0  0  0
  -19.9599   13.4808  -26.8218 H   0  0  0  0  0  0  0  0  0  0  0  0
  -22.6335   14.1376  -24.2359 H   0  0  0  0  0  0  0  0  0  0  0  0
  -23.3131   16.1424  -25.5612 H   0  0  0  0  0  0  0  0  0  0  0  0
  -20.7846   17.0716  -27.0722 H   0  0  0  0  0  0  0  0  0  0  0  0
  -22.2608   20.6582  -29.0759 H   0  0  0  0  0  0  0  0  0  0  0  0
  -23.5320   20.8599  -30.3276 H   0  0  0  0  0  0  0  0  0  0  0  0
  -23.5623   18.2723  -32.0025 H   0  0  0  0  0  0  0  0  0  0  0  0
  -24.0213   18.6283  -29.7256 H   0  0  0  0  0  0  0  0  0  0  0  0
  -18.1281   13.2517  -22.4396 H   0  0  0  0  0  0  0  0  0  0  0  0
  -19.3284   13.5077  -21.1537 H   0  0  0  0  0  0  0  0  0  0  0  0
  -18.1523   14.7796  -21.5313 H   0  0  0  0  0  0  0  0  0  0  0  0
  -21.8639   14.3185  -32.2398 H   0  0  0  0  0  0  0  0  0  0  0  0
  -23.3074   13.6352  -31.5025 H   0  0  0  0  0  0  0  0  0  0  0  0
  -18.3472   16.0645  -23.4127 H   0  0  0  0  0  0  0  0  0  0  0  0
  -21.2091   18.2029  -28.9251 H   0  0  0  0  0  0  0  0  0  0  0  0
  -21.2961   16.5642  -31.2380 H   0  0  0  0  0  0  0  0  0  0  0  0
  -18.0994   14.9993  -29.5061 H   0  0  0  0  0  0  0  0  0  0  0  0
  1  2  1  0  0  0  0
  1  3  2  0  0  0  0
  2  4  2  0  0  0  0
  3  8  1  0  0  0  0
  4  9  1  0  0  0  0
  5 10  1  0  0  0  0
  5 11  2  0  0  0  0
  6 10  2  0  0  0  0
  6 25  1  0  0  0  0
  7 11  1  0  0  0  0
  7 25  2  0  0  0  0
  8  9  2  0  0  0  0
  8 20  1  0  0  0  0
  9 21  1  0  0  0  0
 10 24  1  0  0  0  0
 11 33  1  0  0  0  0
 12 13  2  0  0  0  0
 12 26  1  0  0  0  0
 13 14  1  0  0  0  0
 13 16  1  0  0  0  0
 14 27  1  0  0  0  0
 14 30  2  0  0  0  0
 15 23  1  0  0  0  0
 15 26  2  0  0  0  0
 15 27  1  0  0  0  0
 16 17  2  0  0  0  0
 17 18  1  0  0  0  0
 18 28  1  0  0  0  0
 18 31  2  0  0  0  0
 19 24  1  0  0  0  0
 19 29  1  0  0  0  0
 19 32  2  0  0  0  0
 20 22  1  0  0  0  0
 21 22  1  0  0  0  0
 21 29  1  0  0  0  0
 22 28  1  0  0  0  0
  1 34  1  0  0  0  0
  2 35  1  0  0  0  0
  3 36  1  0  0  0  0
  4 37  1  0  0  0  0
  5 38  1  0  0  0  0
  6 39  1  0  0  0  0
  7 40  1  0  0  0  0
 12 41  1  0  0  0  0
 16 42  1  0  0  0  0
 17 43  1  0  0  0  0
 20 44  1  0  0  0  0
 20 45  1  0  0  0  0
 21 46  1  0  0  0  0
 22 47  1  0  0  0  0
 23 48  1  0  0  0  0
 23 49  1  0  0  0  0
 23 50  1  0  0  0  0
 24 51  1  0  0  0  0
 24 52  1  0  0  0  0
 27 53  1  0  0  0  0
 28 54  1  0  0  0  0
 29 55  1  0  0  0  0
 33 56  1  0  0  0  0
M  END
> <FRED Chemgauss4 score>
-8.391552

$$$$
22
  -OEChem-08042116223D

 55 58  0     1  0  0  0  0  0999 V2000
  -24.8774   20.0154  -32.6613 C   0  0  0  0  0  0  0  0  0  0  0  0
  -25.0719   18.7921  -32.0269 C   0  0  0  0  0  0  0  0  0  0  0  0
  -23.7139   20.7478  -32.4246 C   0  0  0  0  0  0  0  0  0  0  0  0
  -24.1035   18.2965  -31.1533 C   0  0  0  0  0  0  0  0  0  0  0  0
  -21.5513   20.9882  -31.2986 C   0  0  0  0  0  0  0  0  0  0  0  0
  -20.5829   20.4927  -30.4250 C   0  0  0  0  0  0  0  0  0  0  0  0
  -21.9409   18.5368  -30.0271 C   0  0  0  0  0  0  0  0  0  0  0  0
  -20.2925   16.1508  -24.4149 C   0  0  0  0  0  0  0  0  0  0  0  0
  -18.7646   17.5924  -23.2996 C   0  0  0  0  0  0  0  0  0  0  0  0
  -18.8523   15.3801  -22.6862 C   0  0  0  0  0  0  0  0  0  0  0  0
  -22.7285   20.2643  -31.5485 C   0  0  0  0  0  0  0  0  0  0  0  0
  -22.9263   19.0203  -30.9033 C   0  0  0  0  0  0  0  0  0  0  0  0
  -20.7773   19.2693  -29.7905 C   0  0  0  0  0  0  0  0  0  0  0  0
  -19.7491   17.4212  -24.2594 C   0  0  0  0  0  0  0  0  0  0  0  0
  -19.8411   15.1053  -23.6171 C   0  0  0  0  0  0  0  0  0  0  0  0
  -22.1039   14.6141  -28.1054 C   0  0  0  0  0  0  0  0  0  0  0  0
  -21.5005   13.2232  -30.0042 C   0  0  0  0  0  0  0  0  0  0  0  0
  -22.8832   13.6467  -27.6085 C   0  0  0  0  0  0  0  0  0  0  0  0
  -21.3959   14.3843  -29.3413 C   0  0  0  0  0  0  0  0  0  0  0  0
  -22.3716   12.1428  -29.4483 C   0  0  0  0  0  0  0  0  0  0  0  0
  -20.5279   15.4272  -29.9182 C   0  0  0  0  0  0  0  0  0  0  0  0
  -19.4270   18.7331  -26.3930 C   0  0  0  0  0  0  0  0  0  0  0  0
  -20.2161   18.5743  -25.1076 C   0  0  0  0  0  0  0  0  0  0  0  0
  -19.1370   17.3820  -29.2856 C   0  0  0  0  0  0  0  0  0  0  0  0
  -19.7407   18.7411  -28.8571 C   0  0  2  0  0  0  0  0  0  0  0  0
  -18.3005   16.6011  -22.5062 N   0  0  0  0  0  0  0  0  0  0  0  0
  -23.0156   12.4449  -28.2584 N   0  0  0  0  0  0  0  0  0  0  0  0
  -20.0129   16.2858  -28.9631 N   0  0  0  0  0  0  0  0  0  0  0  0
  -20.2564   18.6206  -27.4775 N   0  0  0  0  0  0  0  0  0  0  0  0
  -22.4824   11.0712  -30.0386 O   0  0  0  0  0  0  0  0  0  0  0  0
  -20.3232   15.4718  -31.1263 O   0  0  0  0  0  0  0  0  0  0  0  0
  -18.2161   18.9372  -26.4245 O   0  0  0  0  0  0  0  0  0  0  0  0
  -20.3525   13.8561  -23.7464 O   0  0  0  0  0  0  0  0  0  0  0  0
  -25.6319   20.4004  -33.3408 H   0  0  0  0  0  0  0  0  0  0  0  0
  -25.9782   18.2227  -32.2112 H   0  0  0  0  0  0  0  0  0  0  0  0
  -23.5832   21.7016  -32.9321 H   0  0  0  0  0  0  0  0  0  0  0  0
  -24.2768   17.3380  -30.6681 H   0  0  0  0  0  0  0  0  0  0  0  0
  -21.3783   21.9470  -31.7834 H   0  0  0  0  0  0  0  0  0  0  0  0
  -19.6795   21.0697  -30.2460 H   0  0  0  0  0  0  0  0  0  0  0  0
  -22.0805   17.5810  -29.5245 H   0  0  0  0  0  0  0  0  0  0  0  0
  -21.0674   15.9729  -25.1561 H   0  0  0  0  0  0  0  0  0  0  0  0
  -18.3035   18.5612  -23.1334 H   0  0  0  0  0  0  0  0  0  0  0  0
  -18.4617   14.6022  -22.0376 H   0  0  0  0  0  0  0  0  0  0  0  0
  -21.9981   15.5636  -27.5935 H   0  0  0  0  0  0  0  0  0  0  0  0
  -20.9825   13.0189  -30.9344 H   0  0  0  0  0  0  0  0  0  0  0  0
  -23.4403   13.7559  -26.6868 H   0  0  0  0  0  0  0  0  0  0  0  0
  -21.2763   18.4410  -25.3577 H   0  0  0  0  0  0  0  0  0  0  0  0
  -20.1452   19.5080  -24.5353 H   0  0  0  0  0  0  0  0  0  0  0  0
  -18.9736   17.3387  -30.3684 H   0  0  0  0  0  0  0  0  0  0  0  0
  -18.1761   17.1874  -28.7975 H   0  0  0  0  0  0  0  0  0  0  0  0
  -18.8967   19.4544  -28.7970 H   0  0  0  0  0  0  0  0  0  0  0  0
  -23.6201   11.7461  -27.8363 H   0  0  0  0  0  0  0  0  0  0  0  0
  -20.2648   16.1355  -27.9878 H   0  0  0  0  0  0  0  0  0  0  0  0
  -21.2321   18.4532  -27.3324 H   0  0  0  0  0  0  0  0  0  0  0  0
  -21.0328   13.8358  -24.4408 H   0  0  0  0  0  0  0  0  0  0  0  0
  1  2  1  0  0  0  0
  1  3  2  0  0  0  0
  2  4  2  0  0  0  0
  3 11  1  0  0  0  0
  4 12  1  0  0  0  0
  5  6  2  0  0  0  0
  5 11  1  0  0  0  0
  6 13  1  0  0  0  0
  7 12  1  0  0  0  0
  7 13  2  0  0  0  0
  8 14  1  0  0  0  0
  8 15  2  0  0  0  0
  9 14  2  0  0  0  0
  9 26  1  0  0  0  0
 10 15  1  0  0  0  0
 10 26  2  0  0  0  0
 11 12  2  0  0  0  0
 13 25  1  0  0  0  0
 14 23  1  0  0  0  0
 15 33  1  0  0  0  0
 16 18  2  0  0  0  0
 16 19  1  0  0  0  0
 17 19  2  0  0  0  0
 17 20  1  0  0  0  0
 18 27  1  0  0  0  0
 19 21  1  0  0  0  0
 20 27  1  0  0  0  0
 20 30  2  0  0  0  0
 21 28  1  0  0  0  0
 21 31  2  0  0  0  0
 22 23  1  0  0  0  0
 22 29  1  0  0  0  0
 22 32  2  0  0  0  0
 24 25  1  0  0  0  0
 24 28  1  0  0  0  0
 25 29  1  0  0  0  0
  1 34  1  0  0  0  0
  2 35  1  0  0  0  0
  3 36  1  0  0  0  0
  4 37  1  0  0  0  0
  5 38  1  0  0  0  0
  6 39  1  0  0  0  0
  7 40  1  0  0  0  0
  8 41  1  0  0  0  0
  9 42  1  0  0  0  0
 10 43  1  0  0  0  0
 16 44  1  0  0  0  0
 17 45  1  0  0  0  0
 18 46  1  0  0  0  0
 23 47  1  0  0  0  0
 23 48  1  0  0  0  0
 24 49  1  0  0  0  0
 24 50  1  0  0  0  0
 25 51  1  0  0  0  0
 27 52  1  0  0  0  0
 28 53  1  0  0  0  0
 29 54  1  0  0  0  0
 33 55  1  0  0  0  0
M  END
> <FRED Chemgauss4 score>
-7.941586

$$$$
7
  -OEChem-08042116223D

 58 61  0     1  0  0  0  0  0999 V2000
  -17.6793   23.5009  -25.9468 C   0  0  0  0  0  0  0  0  0  0  0  0
  -18.4405   23.3729  -24.7887 C   0  0  0  0  0  0  0  0  0  0  0  0
  -17.5578   22.4241  -26.8254 C   0  0  0  0  0  0  0  0  0  0  0  0
  -19.0831   22.1676  -24.5049 C   0  0  0  0  0  0  0  0  0  0  0  0
  -18.0865   20.1091  -27.4289 C   0  0  0  0  0  0  0  0  0  0  0  0
  -18.7290   18.9037  -27.1451 C   0  0  0  0  0  0  0  0  0  0  0  0
  -19.6117   19.8525  -25.1083 C   0  0  0  0  0  0  0  0  0  0  0  0
  -18.1978   21.2034  -26.5557 C   0  0  0  0  0  0  0  0  0  0  0  0
  -18.9718   21.0732  -25.3781 C   0  0  0  0  0  0  0  0  0  0  0  0
  -19.4902   18.7757  -25.9870 C   0  0  0  0  0  0  0  0  0  0  0  0
  -23.7619   19.3044  -31.5114 C   0  0  0  0  0  0  0  0  0  0  0  0
  -24.6325   19.2556  -33.5910 C   0  0  0  0  0  0  0  0  0  0  0  0
  -23.6702   17.9702  -31.4023 C   0  0  0  0  0  0  0  0  0  0  0  0
  -20.1138   14.4050  -22.1187 C   0  0  0  0  0  0  0  0  0  0  0  0
  -20.1606   13.1669  -21.6146 C   0  0  0  0  0  0  0  0  0  0  0  0
  -24.1222   17.1386  -32.5483 C   0  0  0  0  0  0  0  0  0  0  0  0
  -21.3996   15.0293  -21.7043 C   0  0  0  0  0  0  0  0  0  0  0  0
  -23.1513   17.3406  -30.2204 C   0  0  0  0  0  0  0  0  0  0  0  0
  -23.2650   17.8767  -28.9986 C   0  0  0  0  0  0  0  0  0  0  0  0
  -22.7013   17.1673  -27.8169 C   0  0  0  0  0  0  0  0  0  0  0  0
  -19.6679   15.5138  -24.2566 C   0  0  0  0  0  0  0  0  0  0  0  0
  -19.1436   12.0863  -21.6854 C   0  0  0  0  0  0  0  0  0  0  0  0
  -19.0850   15.1321  -22.9097 C   0  0  0  0  0  0  0  0  0  0  0  0
  -21.7171   17.5977  -25.5860 C   0  0  0  0  0  0  0  0  0  0  0  0
  -20.1767   17.4863  -25.6854 C   0  0  2  0  0  0  0  0  0  0  0  0
  -24.2425   19.9893  -32.6012 N   0  0  0  0  0  0  0  0  0  0  0  0
  -24.5951   17.8804  -33.6146 N   0  0  0  0  0  0  0  0  0  0  0  0
  -21.3328   12.9734  -20.9580 N   0  0  0  0  0  0  0  0  0  0  0  0
  -22.2986   18.0479  -26.8238 N   0  0  0  0  0  0  0  0  0  0  0  0
  -19.6619   16.8686  -24.4455 N   0  0  0  0  0  0  0  0  0  0  0  0
  -24.0746   15.9124  -32.5357 O   0  0  0  0  0  0  0  0  0  0  0  0
  -21.7578   16.1651  -21.9623 O   0  0  0  0  0  0  0  0  0  0  0  0
  -22.6124   15.9451  -27.7591 O   0  0  0  0  0  0  0  0  0  0  0  0
  -20.0805   14.6696  -25.0503 O   0  0  0  0  0  0  0  0  0  0  0  0
  -22.1118   14.1076  -20.9749 O   0  0  0  0  0  0  0  0  0  0  0  0
  -17.1792   24.4394  -26.1667 H   0  0  0  0  0  0  0  0  0  0  0  0
  -18.5341   24.2115  -24.1050 H   0  0  0  0  0  0  0  0  0  0  0  0
  -16.9578   22.5473  -27.7249 H   0  0  0  0  0  0  0  0  0  0  0  0
  -19.6727   22.0900  -23.5936 H   0  0  0  0  0  0  0  0  0  0  0  0
  -17.4964   20.1866  -28.3399 H   0  0  0  0  0  0  0  0  0  0  0  0
  -18.6290   18.0697  -27.8347 H   0  0  0  0  0  0  0  0  0  0  0  0
  -20.2105   19.7392  -24.2059 H   0  0  0  0  0  0  0  0  0  0  0  0
  -23.4412   19.9449  -30.6944 H   0  0  0  0  0  0  0  0  0  0  0  0
  -25.0350   19.6975  -34.5152 H   0  0  0  0  0  0  0  0  0  0  0  0
  -22.6529   16.3887  -30.3771 H   0  0  0  0  0  0  0  0  0  0  0  0
  -23.7630   18.8288  -28.8431 H   0  0  0  0  0  0  0  0  0  0  0  0
  -18.4646   12.1508  -20.8319 H   0  0  0  0  0  0  0  0  0  0  0  0
  -18.5623   12.1743  -22.6066 H   0  0  0  0  0  0  0  0  0  0  0  0
  -19.6309   11.1082  -21.6763 H   0  0  0  0  0  0  0  0  0  0  0  0
  -18.2174   14.4890  -23.0889 H   0  0  0  0  0  0  0  0  0  0  0  0
  -18.7456   16.0086  -22.3502 H   0  0  0  0  0  0  0  0  0  0  0  0
  -22.1764   16.6278  -25.3636 H   0  0  0  0  0  0  0  0  0  0  0  0
  -22.0286   18.2987  -24.8044 H   0  0  0  0  0  0  0  0  0  0  0  0
  -19.9662   16.7562  -26.4900 H   0  0  0  0  0  0  0  0  0  0  0  0
  -24.9252   17.3902  -34.4408 H   0  0  0  0  0  0  0  0  0  0  0  0
  -21.5651   12.1732  -20.3884 H   0  0  0  0  0  0  0  0  0  0  0  0
  -22.3834   19.0513  -26.9730 H   0  0  0  0  0  0  0  0  0  0  0  0
  -19.2984   17.4586  -23.7233 H   0  0  0  0  0  0  0  0  0  0  0  0
  1  2  1  0  0  0  0
  1  3  2  0  0  0  0
  2  4  2  0  0  0  0
  3  8  1  0  0  0  0
  4  9  1  0  0  0  0
  5  6  2  0  0  0  0
  5  8  1  0  0  0  0
  6 10  1  0  0  0  0
  7  9  1  0  0  0  0
  7 10  2  0  0  0  0
  8  9  2  0  0  0  0
 10 25  1  0  0  0  0
 11 13  2  0  0  0  0
 11 26  1  0  0  0  0
 12 26  2  0  0  0  0
 12 27  1  0  0  0  0
 13 16  1  0  0  0  0
 13 18  1  0  0  0  0
 14 15  2  0  0  0  0
 14 17  1  0  0  0  0
 14 23  1  0  0  0  0
 15 22  1  0  0  0  0
 15 28  1  0  0  0  0
 16 27  1  0  0  0  0
 16 31  2  0  0  0  0
 17 32  2  0  0  0  0
 17 35  1  0  0  0  0
 18 19  2  0  0  0  0
 19 20  1  0  0  0  0
 20 29  1  0  0  0  0
 20 33  2  0  0  0  0
 21 23  1  0  0  0  0
 21 30  1  0  0  0  0
 21 34  2  0  0  0  0
 24 25  1  0  0  0  0
 24 29  1  0  0  0  0
 25 30  1  0  0  0  0
 28 35  1  0  0  0  0
  1 36  1  0  0  0  0
  2 37  1  0  0  0  0
  3 38  1  0  0  0  0
  4 39  1  0  0  0  0
  5 40  1  0  0  0  0
  6 41  1  0  0  0  0
  7 42  1  0  0  0  0
 11 43  1  0  0  0  0
 12 44  1  0  0  0  0
 18 45  1  0  0  0  0
 19 46  1  0  0  0  0
 22 47  1  0  0  0  0
 22 48  1  0  0  0  0
 22 49  1  0  0  0  0
 23 50  1  0  0  0  0
 23 51  1  0  0  0  0
 24 52  1  0  0  0  0
 24 53  1  0  0  0  0
 25 54  1  0  0  0  0
 27 55  1  0  0  0  0
 28 56  1  0  0  0  0
 29 57  1  0  0  0  0
 30 58  1  0  0  0  0
M  END
> <FRED Chemgauss4 score>
-5.116879

$$$$
31
  -OEChem-08042116223D

 54 57  0     1  0  0  0  0  0999 V2000
  -21.0970   13.6097  -27.8473 C   0  0  0  0  0  0  0  0  0  0  0  0
  -22.3118   14.2207  -27.5512 C   0  0  0  0  0  0  0  0  0  0  0  0
  -20.0354   14.3685  -28.3409 C   0  0  0  0  0  0  0  0  0  0  0  0
  -22.4697   15.5929  -27.7475 C   0  0  0  0  0  0  0  0  0  0  0  0
  -19.1187   16.5302  -29.0406 C   0  0  0  0  0  0  0  0  0  0  0  0
  -19.2766   17.9024  -29.2370 C   0  0  0  0  0  0  0  0  0  0  0  0
  -21.5531   17.7546  -28.4474 C   0  0  0  0  0  0  0  0  0  0  0  0
  -20.1765   15.7509  -28.5447 C   0  0  0  0  0  0  0  0  0  0  0  0
  -21.4119   16.3722  -28.2436 C   0  0  0  0  0  0  0  0  0  0  0  0
  -20.4915   18.5134  -28.9409 C   0  0  0  0  0  0  0  0  0  0  0  0
  -24.2761   15.2129  -30.8275 C   0  0  0  0  0  0  0  0  0  0  0  0
  -25.0455   16.2884  -30.9907 C   0  0  0  0  0  0  0  0  0  0  0  0
  -19.3565   22.8636  -25.4644 C   0  0  0  0  0  0  0  0  0  0  0  0
  -17.1776   23.3826  -25.0823 C   0  0  0  0  0  0  0  0  0  0  0  0
  -19.0572   21.9193  -26.3639 C   0  0  0  0  0  0  0  0  0  0  0  0
  -22.9076   15.1669  -31.3758 C   0  0  0  0  0  0  0  0  0  0  0  0
  -24.5635   17.4785  -31.7243 C   0  0  0  0  0  0  0  0  0  0  0  0
  -16.7258   22.3469  -26.0748 C   0  0  0  0  0  0  0  0  0  0  0  0
  -20.1264   21.1539  -27.0309 C   0  0  0  0  0  0  0  0  0  0  0  0
  -22.3884   19.6355  -31.9830 C   0  0  0  0  0  0  0  0  0  0  0  0
  -22.7492   18.5373  -32.9505 C   0  0  0  0  0  0  0  0  0  0  0  0
  -20.4627   20.4359  -30.6174 C   0  0  0  0  0  0  0  0  0  0  0  0
  -20.6583   19.9806  -29.1513 C   0  0  2  0  0  0  0  0  0  0  0  0
  -18.4200   23.6179  -24.8022 N   0  0  0  0  0  0  0  0  0  0  0  0
  -17.7537   21.6544  -26.6744 N   0  0  0  0  0  0  0  0  0  0  0  0
  -22.4864   16.2829  -32.0521 N   0  0  0  0  0  0  0  0  0  0  0  0
  -23.2910   17.3874  -32.2117 N   0  0  0  0  0  0  0  0  0  0  0  0
  -19.7550   20.7646  -28.2835 N   0  0  0  0  0  0  0  0  0  0  0  0
  -21.0738   19.5197  -31.5447 N   0  0  0  0  0  0  0  0  0  0  0  0
  -22.2147   14.1647  -31.2141 O   0  0  0  0  0  0  0  0  0  0  0  0
  -25.3127   18.4464  -31.8464 O   0  0  0  0  0  0  0  0  0  0  0  0
  -15.5279   22.2063  -26.2635 O   0  0  0  0  0  0  0  0  0  0  0  0
  -21.1888   20.9362  -26.4588 O   0  0  0  0  0  0  0  0  0  0  0  0
  -23.1715   20.5166  -31.6383 O   0  0  0  0  0  0  0  0  0  0  0  0
  -20.9751   12.5415  -27.6945 H   0  0  0  0  0  0  0  0  0  0  0  0
  -23.1379   13.6291  -27.1675 H   0  0  0  0  0  0  0  0  0  0  0  0
  -19.0947   13.8695  -28.5651 H   0  0  0  0  0  0  0  0  0  0  0  0
  -23.4285   16.0493  -27.5095 H   0  0  0  0  0  0  0  0  0  0  0  0
  -18.1601   16.0735  -29.2791 H   0  0  0  0  0  0  0  0  0  0  0  0
  -18.4447   18.4861  -29.6221 H   0  0  0  0  0  0  0  0  0  0  0  0
  -22.4982   18.2450  -28.2194 H   0  0  0  0  0  0  0  0  0  0  0  0
  -24.6365   14.3442  -30.2883 H   0  0  0  0  0  0  0  0  0  0  0  0
  -26.0513   16.3190  -30.5866 H   0  0  0  0  0  0  0  0  0  0  0  0
  -20.3873   23.0857  -25.2072 H   0  0  0  0  0  0  0  0  0  0  0  0
  -16.3713   23.9490  -24.5902 H   0  0  0  0  0  0  0  0  0  0  0  0
  -23.5030   18.9002  -33.6554 H   0  0  0  0  0  0  0  0  0  0  0  0
  -21.8589   18.2222  -33.5027 H   0  0  0  0  0  0  0  0  0  0  0  0
  -20.9239   21.4133  -30.7994 H   0  0  0  0  0  0  0  0  0  0  0  0
  -19.4036   20.5143  -30.8852 H   0  0  0  0  0  0  0  0  0  0  0  0
  -21.6831   20.2831  -28.8629 H   0  0  0  0  0  0  0  0  0  0  0  0
  -17.5393   20.9353  -27.3582 H   0  0  0  0  0  0  0  0  0  0  0  0
  -21.5560   16.3214  -32.4567 H   0  0  0  0  0  0  0  0  0  0  0  0
  -18.8474   21.0161  -28.6240 H   0  0  0  0  0  0  0  0  0  0  0  0
  -20.5138   18.7460  -31.8983 H   0  0  0  0  0  0  0  0  0  0  0  0
  1  2  1  0  0  0  0
  1  3  2  0  0  0  0
  2  4  2  0  0  0  0
  3  8  1  0  0  0  0
  4  9  1  0  0  0  0
  5  6  2  0  0  0  0
  5  8  1  0  0  0  0
  6 10  1  0  0  0  0
  7  9  1  0  0  0  0
  7 10  2  0  0  0  0
  8  9  2  0  0  0  0
 10 23  1  0  0  0  0
 11 12  2  0  0  0  0
 11 16  1  0  0  0  0
 12 17  1  0  0  0  0
 13 15  2  0  0  0  0
 13 24  1  0  0  0  0
 14 18  1  0  0  0  0
 14 24  2  0  0  0  0
 15 19  1  0  0  0  0
 15 25  1  0  0  0  0
 16 26  1  0  0  0  0
 16 30  2  0  0  0  0
 17 27  1  0  0  0  0
 17 31  2  0  0  0  0
 18 25  1  0  0  0  0
 18 32  2  0  0  0  0
 19 28  1  0  0  0  0
 19 33  2  0  0  0  0
 20 21  1  0  0  0  0
 20 29  1  0  0  0  0
 20 34  2  0  0  0  0
 21 27  1  0  0  0  0
 22 23  1  0  0  0  0
 22 29  1  0  0  0  0
 23 28  1  0  0  0  0
 26 27  1  0  0  0  0
  1 35  1  0  0  0  0
  2 36  1  0  0  0  0
  3 37  1  0  0  0  0
  4 38  1  0  0  0  0
  5 39  1  0  0  0  0
  6 40  1  0  0  0  0
  7 41  1  0  0  0  0
 11 42  1  0  0  0  0
 12 43  1  0  0  0  0
 13 44  1  0  0  0  0
 14 45  1  0  0  0  0
 21 46  1  0  0  0  0
 21 47  1  0  0  0  0
 22 48  1  0  0  0  0
 22 49  1  0  0  0  0
 23 50  1  0  0  0  0
 25 51  1  0  0  0  0
 26 52  1  0  0  0  0
 28 53  1  0  0  0  0
 29 54  1  0  0  0  0
M  END
> <FRED Chemgauss4 score>
-8.187830

$$$$
10
  -OEChem-08042116223D

 55 58  0     1  0  0  0  0  0999 V2000
  -20.5811   13.4036  -21.4422 C   0  0  0  0  0  0  0  0  0  0  0  0
  -21.5594   14.0546  -20.6966 C   0  0  0  0  0  0  0  0  0  0  0  0
  -20.0694   13.9998  -22.5951 C   0  0  0  0  0  0  0  0  0  0  0  0
  -22.0298   15.3043  -21.1010 C   0  0  0  0  0  0  0  0  0  0  0  0
  -20.0273   15.8721  -24.1748 C   0  0  0  0  0  0  0  0  0  0  0  0
  -20.4977   17.1217  -24.5793 C   0  0  0  0  0  0  0  0  0  0  0  0
  -21.9878   17.1766  -22.6808 C   0  0  0  0  0  0  0  0  0  0  0  0
  -20.5311   15.2572  -23.0170 C   0  0  0  0  0  0  0  0  0  0  0  0
  -21.5260   15.9192  -22.2588 C   0  0  0  0  0  0  0  0  0  0  0  0
  -21.4760   17.7727  -23.8337 C   0  0  0  0  0  0  0  0  0  0  0  0
  -18.6991   20.8189  -26.3121 C   0  0  0  0  0  0  0  0  0  0  0  0
  -18.6480   22.5968  -24.6568 C   0  0  0  0  0  0  0  0  0  0  0  0
  -22.1260   13.2401  -29.4647 C   0  0  0  0  0  0  0  0  0  0  0  0
  -17.8131   21.4670  -27.0769 C   0  0  0  0  0  0  0  0  0  0  0  0
  -21.8823   13.3119  -31.7053 C   0  0  0  0  0  0  0  0  0  0  0  0
  -19.1223   21.4112  -25.0665 C   0  0  0  0  0  0  0  0  0  0  0  0
  -22.5507   14.5088  -29.3624 C   0  0  0  0  0  0  0  0  0  0  0  0
  -17.6580   23.3204  -25.5119 C   0  0  0  0  0  0  0  0  0  0  0  0
  -22.6645   15.3144  -30.6063 C   0  0  0  0  0  0  0  0  0  0  0  0
  -22.8932   15.0933  -28.0961 C   0  0  0  0  0  0  0  0  0  0  0  0
  -22.7550   16.3992  -27.8342 C   0  0  0  0  0  0  0  0  0  0  0  0
  -20.0967   20.7255  -24.1981 C   0  0  0  0  0  0  0  0  0  0  0  0
  -23.1299   16.9361  -26.4968 C   0  0  0  0  0  0  0  0  0  0  0  0
  -23.2050   19.0490  -25.2083 C   0  0  0  0  0  0  0  0  0  0  0  0
  -21.9775   19.1088  -24.2676 C   0  0  2  0  0  0  0  0  0  0  0  0
  -21.7795   12.6015  -30.6308 N   0  0  0  0  0  0  0  0  0  0  0  0
  -17.3053   22.6826  -26.6912 N   0  0  0  0  0  0  0  0  0  0  0  0
  -22.3030   14.6213  -31.7465 N   0  0  0  0  0  0  0  0  0  0  0  0
  -20.9171   19.9074  -24.9167 N   0  0  0  0  0  0  0  0  0  0  0  0
  -22.9203   18.3042  -26.4070 N   0  0  0  0  0  0  0  0  0  0  0  0
  -17.2102   24.4077  -25.1565 O   0  0  0  0  0  0  0  0  0  0  0  0
  -23.0439   16.4814  -30.6067 O   0  0  0  0  0  0  0  0  0  0  0  0
  -20.1006   20.9206  -22.9876 O   0  0  0  0  0  0  0  0  0  0  0  0
  -23.5669   16.2254  -25.5972 O   0  0  0  0  0  0  0  0  0  0  0  0
  -20.2159   12.4308  -21.1268 H   0  0  0  0  0  0  0  0  0  0  0  0
  -21.9577   13.5897  -19.7995 H   0  0  0  0  0  0  0  0  0  0  0  0
  -19.3048   13.4724  -23.1621 H   0  0  0  0  0  0  0  0  0  0  0  0
  -22.7952   15.7948  -20.5029 H   0  0  0  0  0  0  0  0  0  0  0  0
  -19.2623   15.3812  -24.7732 H   0  0  0  0  0  0  0  0  0  0  0  0
  -20.0939   17.5789  -25.4788 H   0  0  0  0  0  0  0  0  0  0  0  0
  -22.7528   17.6968  -22.1064 H   0  0  0  0  0  0  0  0  0  0  0  0
  -19.1011   19.8589  -26.6151 H   0  0  0  0  0  0  0  0  0  0  0  0
  -18.9452   23.0690  -23.7273 H   0  0  0  0  0  0  0  0  0  0  0  0
  -22.0303   12.6204  -28.5774 H   0  0  0  0  0  0  0  0  0  0  0  0
  -17.4555   21.0773  -28.0215 H   0  0  0  0  0  0  0  0  0  0  0  0
  -21.6314   12.9025  -32.6957 H   0  0  0  0  0  0  0  0  0  0  0  0
  -23.2773   14.4036  -27.3504 H   0  0  0  0  0  0  0  0  0  0  0  0
  -22.3704   17.0878  -28.5803 H   0  0  0  0  0  0  0  0  0  0  0  0
  -24.0546   18.5497  -24.7287 H   0  0  0  0  0  0  0  0  0  0  0  0
  -23.5368   20.0468  -25.5143 H   0  0  0  0  0  0  0  0  0  0  0  0
  -22.2894   19.6942  -23.3817 H   0  0  0  0  0  0  0  0  0  0  0  0
  -16.6356   23.1303  -27.3101 H   0  0  0  0  0  0  0  0  0  0  0  0
  -22.3510   15.0981  -32.6421 H   0  0  0  0  0  0  0  0  0  0  0  0
  -20.7981   19.8462  -25.9093 H   0  0  0  0  0  0  0  0  0  0  0  0
  -22.5241   18.8079  -27.1981 H   0  0  0  0  0  0  0  0  0  0  0  0
  1  2  1  0  0  0  0
  1  3  2  0  0  0  0
  2  4  2  0  0  0  0
  3  8  1  0  0  0  0
  4  9  1  0  0  0  0
  5  6  2  0  0  0  0
  5  8  1  0  0  0  0
  6 10  1  0  0  0  0
  7  9  1  0  0  0  0
  7 10  2  0  0  0  0
  8  9  2  0  0  0  0
 10 25  1  0  0  0  0
 11 14  2  0  0  0  0
 11 16  1  0  0  0  0
 12 16  2  0  0  0  0
 12 18  1  0  0  0  0
 13 17  2  0  0  0  0
 13 26  1  0  0  0  0
 14 27  1  0  0  0  0
 15 26  2  0  0  0  0
 15 28  1  0  0  0  0
 16 22  1  0  0  0  0
 17 19  1  0  0  0  0
 17 20  1  0  0  0  0
 18 27  1  0  0  0  0
 18 31  2  0  0  0  0
 19 28  1  0  0  0  0
 19 32  2  0  0  0  0
 20 21  2  0  0  0  0
 21 23  1  0  0  0  0
 22 29  1  0  0  0  0
 22 33  2  0  0  0  0
 23 30  1  0  0  0  0
 23 34  2  0  0  0  0
 24 25  1  0  0  0  0
 24 30  1  0  0  0  0
 25 29  1  0  0  0  0
  1 35  1  0  0  0  0
  2 36  1  0  0  0  0
  3 37  1  0  0  0  0
  4 38  1  0  0  0  0
  5 39  1  0  0  0  0
  6 40  1  0  0  0  0
  7 41  1  0  0  0  0
 11 42  1  0  0  0  0
 12 43  1  0  0  0  0
 13 44  1  0  0  0  0
 14 45  1  0  0  0  0
 15 46  1  0  0  0  0
 20 47  1  0  0  0  0
 21 48  1  0  0  0  0
 24 49  1  0  0  0  0
 24 50  1  0  0  0  0
 25 51  1  0  0  0  0
 27 52  1  0  0  0  0
 28 53  1  0  0  0  0
 29 54  1  0  0  0  0
 30 55  1  0  0  0  0
M  END
> <FRED Chemgauss4 score>
-6.682170

$$$$
17
  -OEChem-08042116223D

 53 56  0     1  0  0  0  0  0999 V2000
  -22.6049   12.4617  -29.2404 C   0  0  0  0  0  0  0  0  0  0  0  0
  -23.3732   12.8121  -28.1189 C   0  0  0  0  0  0  0  0  0  0  0  0
  -21.6776   13.3575  -29.7768 C   0  0  0  0  0  0  0  0  0  0  0  0
  -23.2244   14.0630  -27.5163 C   0  0  0  0  0  0  0  0  0  0  0  0
  -21.5448   14.6004  -29.1808 C   0  0  0  0  0  0  0  0  0  0  0  0
  -22.3073   14.9494  -28.0581 C   0  0  0  0  0  0  0  0  0  0  0  0
  -21.6950   15.7696  -20.6296 C   0  0  0  0  0  0  0  0  0  0  0  0
  -16.7939   21.0395  -26.6800 C   0  0  0  0  0  0  0  0  0  0  0  0
  -21.2554   16.2840  -21.7799 C   0  0  0  0  0  0  0  0  0  0  0  0
  -15.8978   22.9587  -25.9059 C   0  0  0  0  0  0  0  0  0  0  0  0
  -18.0442   21.3444  -26.3005 C   0  0  0  0  0  0  0  0  0  0  0  0
  -21.8966   14.3105  -20.5219 C   0  0  0  0  0  0  0  0  0  0  0  0
  -18.2749   22.6461  -25.6211 C   0  0  0  0  0  0  0  0  0  0  0  0
  -21.1354   14.1242  -22.8880 C   0  0  0  0  0  0  0  0  0  0  0  0
  -19.1457   20.4533  -26.5353 C   0  0  0  0  0  0  0  0  0  0  0  0
  -19.5150   20.0570  -27.7599 C   0  0  0  0  0  0  0  0  0  0  0  0
  -20.6691   19.1311  -27.9284 C   0  0  0  0  0  0  0  0  0  0  0  0
  -21.6124   16.2731  -25.1058 C   0  0  0  0  0  0  0  0  0  0  0  0
  -20.6013   15.7022  -29.5542 C   0  0  0  0  0  0  0  0  0  0  0  0
  -21.9554   16.3258  -27.5744 C   0  0  2  0  0  0  0  0  0  0  0  0
  -21.2458   16.8974  -28.8261 C   0  0  1  0  0  0  0  0  0  0  0  0
  -20.5018   16.2055  -24.0889 C   0  0  0  0  0  0  0  0  0  0  0  0
  -15.6848   21.8298  -26.4977 N   0  0  0  0  0  0  0  0  0  0  0  0
  -17.1251   23.3975  -25.4650 N   0  0  0  0  0  0  0  0  0  0  0  0
  -21.5967   13.5992  -21.6734 N   0  0  0  0  0  0  0  0  0  0  0  0
  -20.9788   15.5128  -22.8830 N   0  0  0  0  0  0  0  0  0  0  0  0
  -20.3026   17.9451  -28.5505 N   0  0  0  0  0  0  0  0  0  0  0  0
  -21.1172   16.2712  -26.4055 N   0  0  0  0  0  0  0  0  0  0  0  0
  -22.2993   13.8055  -19.4785 O   0  0  0  0  0  0  0  0  0  0  0  0
  -19.3844   23.0066  -25.2404 O   0  0  0  0  0  0  0  0  0  0  0  0
  -20.9006   13.3907  -23.8506 O   0  0  0  0  0  0  0  0  0  0  0  0
  -21.8032   19.4124  -27.5545 O   0  0  0  0  0  0  0  0  0  0  0  0
  -22.8022   16.3208  -24.8050 O   0  0  0  0  0  0  0  0  0  0  0  0
  -22.7313   11.4814  -29.6922 H   0  0  0  0  0  0  0  0  0  0  0  0
  -24.0870   12.1000  -27.7139 H   0  0  0  0  0  0  0  0  0  0  0  0
  -21.0791   13.0810  -30.6380 H   0  0  0  0  0  0  0  0  0  0  0  0
  -23.8133   14.3278  -26.6446 H   0  0  0  0  0  0  0  0  0  0  0  0
  -21.9101   16.3905  -19.7688 H   0  0  0  0  0  0  0  0  0  0  0  0
  -16.5865   20.0971  -27.1794 H   0  0  0  0  0  0  0  0  0  0  0  0
  -21.1005   17.3532  -21.8806 H   0  0  0  0  0  0  0  0  0  0  0  0
  -15.0824   23.6710  -25.7079 H   0  0  0  0  0  0  0  0  0  0  0  0
  -19.6708   20.1136  -25.6476 H   0  0  0  0  0  0  0  0  0  0  0  0
  -18.9896   20.3977  -28.6468 H   0  0  0  0  0  0  0  0  0  0  0  0
  -19.6003   15.4755  -29.1706 H   0  0  0  0  0  0  0  0  0  0  0  0
  -20.5625   15.8663  -30.6352 H   0  0  0  0  0  0  0  0  0  0  0  0
  -22.8470   16.9127  -27.3307 H   0  0  0  0  0  0  0  0  0  0  0  0
  -22.0070   17.3399  -29.4851 H   0  0  0  0  0  0  0  0  0  0  0  0
  -19.6523   15.6574  -24.5069 H   0  0  0  0  0  0  0  0  0  0  0  0
  -20.1833   17.2169  -23.8198 H   0  0  0  0  0  0  0  0  0  0  0  0
  -17.1928   24.3027  -25.0092 H   0  0  0  0  0  0  0  0  0  0  0  0
  -21.7236   12.5917  -21.6340 H   0  0  0  0  0  0  0  0  0  0  0  0
  -19.3383   17.8137  -28.8538 H   0  0  0  0  0  0  0  0  0  0  0  0
  -20.1080   16.2289  -26.5371 H   0  0  0  0  0  0  0  0  0  0  0  0
  1  2  1  0  0  0  0
  1  3  2  0  0  0  0
  2  4  2  0  0  0  0
  3  5  1  0  0  0  0
  4  6  1  0  0  0  0
  5  6  2  0  0  0  0
  5 19  1  0  0  0  0
  6 20  1  0  0  0  0
  7  9  2  0  0  0  0
  7 12  1  0  0  0  0
  8 11  2  0  0  0  0
  8 23  1  0  0  0  0
  9 26  1  0  0  0  0
 10 23  2  0  0  0  0
 10 24  1  0  0  0  0
 11 13  1  0  0  0  0
 11 15  1  0  0  0  0
 12 25  1  0  0  0  0
 12 29  2  0  0  0  0
 13 24  1  0  0  0  0
 13 30  2  0  0  0  0
 14 25  1  0  0  0  0
 14 26  1  0  0  0  0
 14 31  2  0  0  0  0
 15 16  2  0  0  0  0
 16 17  1  0  0  0  0
 17 27  1  0  0  0  0
 17 32  2  0  0  0  0
 18 22  1  0  0  0  0
 18 28  1  0  0  0  0
 18 33  2  0  0  0  0
 19 21  1  0  0  0  0
 20 21  1  0  0  0  0
 20 28  1  0  0  0  0
 21 27  1  0  0  0  0
 22 26  1  0  0  0  0
  1 34  1  0  0  0  0
  2 35  1  0  0  0  0
  3 36  1  0  0  0  0
  4 37  1  0  0  0  0
  7 38  1  0  0  0  0
  8 39  1  0  0  0  0
  9 40  1  0  0  0  0
 10 41  1  0  0  0  0
 15 42  1  0  0  0  0
 16 43  1  0  0  0  0
 19 44  1  0  0  0  0
 19 45  1  0  0  0  0
 20 46  1  0  0  0  0
 21 47  1  0  0  0  0
 22 48  1  0  0  0  0
 22 49  1  0  0  0  0
 24 50  1  0  0  0  0
 25 51  1  0  0  0  0
 27 52  1  0  0  0  0
 28 53  1  0  0  0  0
M  END
> <FRED Chemgauss4 score>
-8.169249

$$$$
8
  -OEChem-08042116223D

 56 59  0     1  0  0  0  0  0999 V2000
  -24.9295   17.2309  -32.2770 C   0  0  0  0  0  0  0  0  0  0  0  0
  -24.2244   18.4165  -32.0213 C   0  0  0  0  0  0  0  0  0  0  0  0
  -24.3997   15.9948  -31.9036 C   0  0  0  0  0  0  0  0  0  0  0  0
  -22.9803   18.3831  -31.3869 C   0  0  0  0  0  0  0  0  0  0  0  0
  -23.1713   15.9721  -31.2633 C   0  0  0  0  0  0  0  0  0  0  0  0
  -22.4661   17.1543  -31.0013 C   0  0  0  0  0  0  0  0  0  0  0  0
  -20.3804   14.4787  -24.6234 C   0  0  0  0  0  0  0  0  0  0  0  0
  -19.7214   22.1736  -26.4945 C   0  0  0  0  0  0  0  0  0  0  0  0
  -18.7475   21.6227  -27.2337 C   0  0  0  0  0  0  0  0  0  0  0  0
  -21.2606   15.1596  -25.3696 C   0  0  0  0  0  0  0  0  0  0  0  0
  -19.4294   15.2112  -23.7542 C   0  0  0  0  0  0  0  0  0  0  0  0
  -17.3394   21.8660  -26.8307 C   0  0  0  0  0  0  0  0  0  0  0  0
  -18.3079   23.1664  -25.0317 C   0  0  0  0  0  0  0  0  0  0  0  0
  -20.4562   17.3147  -24.5690 C   0  0  0  0  0  0  0  0  0  0  0  0
  -19.0350   20.8163  -28.3868 C   0  0  0  0  0  0  0  0  0  0  0  0
  -19.7544   19.6884  -28.3271 C   0  0  0  0  0  0  0  0  0  0  0  0
  -20.0125   18.9015  -29.5647 C   0  0  0  0  0  0  0  0  0  0  0  0
  -21.6162   14.2821  -27.6284 C   0  0  0  0  0  0  0  0  0  0  0  0
  -22.3983   14.7704  -30.8149 C   0  0  0  0  0  0  0  0  0  0  0  0
  -21.1459   16.8483  -30.3516 C   0  0  2  0  0  0  0  0  0  0  0  0
  -21.3728   15.3983  -29.8508 C   0  0  1  0  0  0  0  0  0  0  0  0
  -17.9954   24.0070  -23.8276 C   0  0  0  0  0  0  0  0  0  0  0  0
  -22.2345   14.4683  -26.2564 C   0  0  0  0  0  0  0  0  0  0  0  0
  -19.5388   22.9553  -25.3805 N   0  0  0  0  0  0  0  0  0  0  0  0
  -21.2996   16.5340  -25.3452 N   0  0  0  0  0  0  0  0  0  0  0  0
  -17.2154   22.6586  -25.7043 N   0  0  0  0  0  0  0  0  0  0  0  0
  -19.5450   16.5922  -23.7972 N   0  0  0  0  0  0  0  0  0  0  0  0
  -20.7718   17.7682  -29.3132 N   0  0  0  0  0  0  0  0  0  0  0  0
  -21.8633   15.3458  -28.4883 N   0  0  0  0  0  0  0  0  0  0  0  0
  -18.6159   14.6056  -23.0626 O   0  0  0  0  0  0  0  0  0  0  0  0
  -16.3853   21.4019  -27.4473 O   0  0  0  0  0  0  0  0  0  0  0  0
  -20.5054   18.5453  -24.5600 O   0  0  0  0  0  0  0  0  0  0  0  0
  -19.5864   19.2392  -30.6646 O   0  0  0  0  0  0  0  0  0  0  0  0
  -20.9646   13.2800  -27.9183 O   0  0  0  0  0  0  0  0  0  0  0  0
  -25.8983   17.2772  -32.7663 H   0  0  0  0  0  0  0  0  0  0  0  0
  -24.6532   19.3706  -32.3159 H   0  0  0  0  0  0  0  0  0  0  0  0
  -24.9406   15.0777  -32.1115 H   0  0  0  0  0  0  0  0  0  0  0  0
  -22.4333   19.3024  -31.2004 H   0  0  0  0  0  0  0  0  0  0  0  0
  -20.3331   13.3957  -24.6274 H   0  0  0  0  0  0  0  0  0  0  0  0
  -20.7641   22.0182  -26.7578 H   0  0  0  0  0  0  0  0  0  0  0  0
  -18.6286   21.1800  -29.3258 H   0  0  0  0  0  0  0  0  0  0  0  0
  -20.1598   19.3255  -27.3877 H   0  0  0  0  0  0  0  0  0  0  0  0
  -23.0720   14.0694  -30.3026 H   0  0  0  0  0  0  0  0  0  0  0  0
  -21.9016   14.2612  -31.6505 H   0  0  0  0  0  0  0  0  0  0  0  0
  -20.3201   16.8504  -31.1055 H   0  0  0  0  0  0  0  0  0  0  0  0
  -20.4544   14.8508  -29.8785 H   0  0  0  0  0  0  0  0  0  0  0  0
  -17.9439   23.3718  -22.9468 H   0  0  0  0  0  0  0  0  0  0  0  0
  -18.7749   24.7536  -23.6951 H   0  0  0  0  0  0  0  0  0  0  0  0
  -17.0413   24.5078  -23.9739 H   0  0  0  0  0  0  0  0  0  0  0  0
  -23.1387   15.0739  -26.3744 H   0  0  0  0  0  0  0  0  0  0  0  0
  -22.5239   13.5137  -25.8076 H   0  0  0  0  0  0  0  0  0  0  0  0
  -21.9849   17.0036  -25.9300 H   0  0  0  0  0  0  0  0  0  0  0  0
  -16.2785   22.8663  -25.3712 H   0  0  0  0  0  0  0  0  0  0  0  0
  -18.9081   17.1271  -23.2136 H   0  0  0  0  0  0  0  0  0  0  0  0
  -21.0562   17.5520  -28.3596 H   0  0  0  0  0  0  0  0  0  0  0  0
  -22.4174   16.1284  -28.1431 H   0  0  0  0  0  0  0  0  0  0  0  0
  1  2  1  0  0  0  0
  1  3  2  0  0  0  0
  2  4  2  0  0  0  0
  3  5  1  0  0  0  0
  4  6  1  0  0  0  0
  5  6  2  0  0  0  0
  5 19  1  0  0  0  0
  6 20  1  0  0  0  0
  7 10  2  0  0  0  0
  7 11  1  0  0  0  0
  8  9  2  0  0  0  0
  8 24  1  0  0  0  0
  9 12  1  0  0  0  0
  9 15  1  0  0  0  0
 10 23  1  0  0  0  0
 10 25  1  0  0  0  0
 11 27  1  0  0  0  0
 11 30  2  0  0  0  0
 12 26  1  0  0  0  0
 12 31  2  0  0  0  0
 13 22  1  0  0  0  0
 13 24  2  0  0  0  0
 13 26  1  0  0  0  0
 14 25  1  0  0  0  0
 14 27  1  0  0  0  0
 14 32  2  0  0  0  0
 15 16  2  0  0  0  0
 16 17  1  0  0  0  0
 17 28  1  0  0  0  0
 17 33  2  0  0  0  0
 18 23  1  0  0  0  0
 18 29  1  0  0  0  0
 18 34  2  0  0  0  0
 19 21  1  0  0  0  0
 20 21  1  0  0  0  0
 20 28  1  0  0  0  0
 21 29  1  0  0  0  0
  1 35  1  0  0  0  0
  2 36  1  0  0  0  0
  3 37  1  0  0  0  0
  4 38  1  0  0  0  0
  7 39  1  0  0  0  0
  8 40  1  0  0  0  0
 15 41  1  0  0  0  0
 16 42  1  0  0  0  0
 19 43  1  0  0  0  0
 19 44  1  0  0  0  0
 20 45  1  0  0  0  0
 21 46  1  0  0  0  0
 22 47  1  0  0  0  0
 22 48  1  0  0  0  0
 22 49  1  0  0  0  0
 23 50  1  0  0  0  0
 23 51  1  0  0  0  0
 25 52  1  0  0  0  0
 26 53  1  0  0  0  0
 27 54  1  0  0  0  0
 28 55  1  0  0  0  0
 29 56  1  0  0  0  0
M  END
> <FRED Chemgauss4 score>
-8.909264

$$$$
50
  -OEChem-08042116223D

 54 57  0     1  0  0  0  0  0999 V2000
  -22.0919   12.3461  -30.0671 C   0  0  0  0  0  0  0  0  0  0  0  0
  -20.7528   12.2747  -29.6947 C   0  0  0  0  0  0  0  0  0  0  0  0
  -22.8614   13.4501  -29.6990 C   0  0  0  0  0  0  0  0  0  0  0  0
  -20.1781   13.3071  -28.9529 C   0  0  0  0  0  0  0  0  0  0  0  0
  -23.0589   15.6172  -28.5733 C   0  0  0  0  0  0  0  0  0  0  0  0
  -22.4842   16.6496  -27.8314 C   0  0  0  0  0  0  0  0  0  0  0  0
  -20.3756   15.4742  -27.8270 C   0  0  0  0  0  0  0  0  0  0  0  0
  -22.2993   14.4985  -28.9524 C   0  0  0  0  0  0  0  0  0  0  0  0
  -20.9376   14.4258  -28.5737 C   0  0  0  0  0  0  0  0  0  0  0  0
  -21.1451   16.5782  -27.4590 C   0  0  0  0  0  0  0  0  0  0  0  0
  -21.9927   20.1403  -32.4561 C   0  0  0  0  0  0  0  0  0  0  0  0
  -20.6955   20.4344  -32.5337 C   0  0  0  0  0  0  0  0  0  0  0  0
  -22.6750   14.5177  -22.1556 C   0  0  0  0  0  0  0  0  0  0  0  0
  -20.5936   14.1664  -23.2641 C   0  0  0  0  0  0  0  0  0  0  0  0
  -21.8415   14.9266  -23.1123 C   0  0  0  0  0  0  0  0  0  0  0  0
  -22.6606   19.9873  -31.1498 C   0  0  0  0  0  0  0  0  0  0  0  0
  -19.8719   20.6206  -31.3197 C   0  0  0  0  0  0  0  0  0  0  0  0
  -22.3104   13.3515  -21.3188 C   0  0  0  0  0  0  0  0  0  0  0  0
  -22.2019   16.0873  -23.9470 C   0  0  0  0  0  0  0  0  0  0  0  0
  -19.5088   19.2953  -28.2682 C   0  0  0  0  0  0  0  0  0  0  0  0
  -19.7753   20.6426  -28.8894 C   0  0  0  0  0  0  0  0  0  0  0  0
  -21.1970   17.9169  -25.2881 C   0  0  0  0  0  0  0  0  0  0  0  0
  -20.5324   17.6830  -26.6661 C   0  0  2  0  0  0  0  0  0  0  0  0
  -20.2350   13.1454  -22.5596 N   0  0  0  0  0  0  0  0  0  0  0  0
  -21.1023   12.7509  -21.5940 N   0  0  0  0  0  0  0  0  0  0  0  0
  -21.8738   20.1643  -30.0409 N   0  0  0  0  0  0  0  0  0  0  0  0
  -20.5355   20.4693  -30.1358 N   0  0  0  0  0  0  0  0  0  0  0  0
  -21.0966   16.7541  -24.4452 N   0  0  0  0  0  0  0  0  0  0  0  0
  -20.5261   18.9567  -27.4153 N   0  0  0  0  0  0  0  0  0  0  0  0
  -23.8583   19.7156  -31.1006 O   0  0  0  0  0  0  0  0  0  0  0  0
  -18.6788   20.8921  -31.4458 O   0  0  0  0  0  0  0  0  0  0  0  0
  -23.0739   12.9701  -20.4339 O   0  0  0  0  0  0  0  0  0  0  0  0
  -23.3776   16.3759  -24.1416 O   0  0  0  0  0  0  0  0  0  0  0  0
  -18.5119   18.6221  -28.5159 O   0  0  0  0  0  0  0  0  0  0  0  0
  -22.5384   11.5419  -30.6442 H   0  0  0  0  0  0  0  0  0  0  0  0
  -20.1546   11.4147  -29.9812 H   0  0  0  0  0  0  0  0  0  0  0  0
  -23.9061   13.4846  -30.0016 H   0  0  0  0  0  0  0  0  0  0  0  0
  -19.1294   13.2299  -28.6725 H   0  0  0  0  0  0  0  0  0  0  0  0
  -24.1077   15.6940  -28.8532 H   0  0  0  0  0  0  0  0  0  0  0  0
  -23.0907   17.5059  -27.5486 H   0  0  0  0  0  0  0  0  0  0  0  0
  -19.3291   15.4309  -27.5295 H   0  0  0  0  0  0  0  0  0  0  0  0
  -22.5901   20.0055  -33.3506 H   0  0  0  0  0  0  0  0  0  0  0  0
  -20.2074   20.5459  -33.4956 H   0  0  0  0  0  0  0  0  0  0  0  0
  -23.6234   15.0034  -21.9544 H   0  0  0  0  0  0  0  0  0  0  0  0
  -19.9156   14.5179  -24.0590 H   0  0  0  0  0  0  0  0  0  0  0  0
  -20.3551   21.2596  -28.1967 H   0  0  0  0  0  0  0  0  0  0  0  0
  -18.8279   21.1418  -29.1130 H   0  0  0  0  0  0  0  0  0  0  0  0
  -20.7143   18.7362  -24.7433 H   0  0  0  0  0  0  0  0  0  0  0  0
  -22.2603   18.1623  -25.3815 H   0  0  0  0  0  0  0  0  0  0  0  0
  -19.4688   17.4512  -26.4661 H   0  0  0  0  0  0  0  0  0  0  0  0
  -20.7945   11.9469  -21.0562 H   0  0  0  0  0  0  0  0  0  0  0  0
  -22.2664   20.0737  -29.1090 H   0  0  0  0  0  0  0  0  0  0  0  0
  -20.1699   16.4066  -24.2046 H   0  0  0  0  0  0  0  0  0  0  0  0
  -21.2900   19.5928  -27.2958 H   0  0  0  0  0  0  0  0  0  0  0  0
  1  2  1  0  0  0  0
  1  3  2  0  0  0  0
  2  4  2  0  0  0  0
  3  8  1  0  0  0  0
  4  9  1  0  0  0  0
  5  6  2  0  0  0  0
  5  8  1  0  0  0  0
  6 10  1  0  0  0  0
  7  9  1  0  0  0  0
  7 10  2  0  0  0  0
  8  9  2  0  0  0  0
 10 23  1  0  0  0  0
 11 12  2  0  0  0  0
 11 16  1  0  0  0  0
 12 17  1  0  0  0  0
 13 15  2  0  0  0  0
 13 18  1  0  0  0  0
 14 15  1  0  0  0  0
 14 24  2  0  0  0  0
 15 19  1  0  0  0  0
 16 26  1  0  0  0  0
 16 30  2  0  0  0  0
 17 27  1  0  0  0  0
 17 31  2  0  0  0  0
 18 25  1  0  0  0  0
 18 32  2  0  0  0  0
 19 28  1  0  0  0  0
 19 33  2  0  0  0  0
 20 21  1  0  0  0  0
 20 29  1  0  0  0  0
 20 34  2  0  0  0  0
 21 27  1  0  0  0  0
 22 23  1  0  0  0  0
 22 28  1  0  0  0  0
 23 29  1  0  0  0  0
 24 25  1  0  0  0  0
 26 27  1  0  0  0  0
  1 35  1  0  0  0  0
  2 36  1  0  0  0  0
  3 37  1  0  0  0  0
  4 38  1  0  0  0  0
  5 39  1  0  0  0  0
  6 40  1  0  0  0  0
  7 41  1  0  0  0  0
 11 42  1  0  0  0  0
 12 43  1  0  0  0  0
 13 44  1  0  0  0  0
 14 45  1  0  0  0  0
 21 46  1  0  0  0  0
 21 47  1  0  0  0  0
 22 48  1  0  0  0  0
 22 49  1  0  0  0  0
 23 50  1  0  0  0  0
 25 51  1  0  0  0  0
 26 52  1  0  0  0  0
 28 53  1  0  0  0  0
 29 54  1  0  0  0  0
M  END
> <FRED Chemgauss4 score>
-7.487476

$$$$
12
  -OEChem-08042116223D

 54 57  0     1  0  0  0  0  0999 V2000
  -22.9264   12.8397  -32.2545 C   0  0  0  0  0  0  0  0  0  0  0  0
  -23.6749   13.9838  -31.9946 C   0  0  0  0  0  0  0  0  0  0  0  0
  -21.8236   12.5305  -31.4578 C   0  0  0  0  0  0  0  0  0  0  0  0
  -23.3236   14.8231  -30.9370 C   0  0  0  0  0  0  0  0  0  0  0  0
  -20.3486   13.0682  -29.5769 C   0  0  0  0  0  0  0  0  0  0  0  0
  -19.9972   13.9075  -28.5193 C   0  0  0  0  0  0  0  0  0  0  0  0
  -21.8485   15.3609  -29.0561 C   0  0  0  0  0  0  0  0  0  0  0  0
  -21.4555   13.3639  -30.3891 C   0  0  0  0  0  0  0  0  0  0  0  0
  -22.2167   14.5274  -30.1248 C   0  0  0  0  0  0  0  0  0  0  0  0
  -20.7457   15.0516  -28.2594 C   0  0  0  0  0  0  0  0  0  0  0  0
  -22.6810   21.0035  -31.6151 C   0  0  0  0  0  0  0  0  0  0  0  0
  -21.6103   21.7474  -31.3399 C   0  0  0  0  0  0  0  0  0  0  0  0
  -21.6372   15.3465  -22.4831 C   0  0  0  0  0  0  0  0  0  0  0  0
  -20.0914   13.7883  -23.4142 C   0  0  0  0  0  0  0  0  0  0  0  0
  -20.8570   15.0377  -23.5190 C   0  0  0  0  0  0  0  0  0  0  0  0
  -22.6829   19.5506  -31.3604 C   0  0  0  0  0  0  0  0  0  0  0  0
  -20.3829   21.1526  -30.7686 C   0  0  0  0  0  0  0  0  0  0  0  0
  -21.6903   14.4400  -21.3132 C   0  0  0  0  0  0  0  0  0  0  0  0
  -20.8020   15.9383  -24.6851 C   0  0  0  0  0  0  0  0  0  0  0  0
  -19.6081   18.4963  -28.6735 C   0  0  0  0  0  0  0  0  0  0  0  0
  -19.2470   19.1506  -29.9826 C   0  0  0  0  0  0  0  0  0  0  0  0
  -18.9518   16.5582  -27.2497 C   0  0  0  0  0  0  0  0  0  0  0  0
  -20.3687   15.9476  -27.1281 C   0  0  2  0  0  0  0  0  0  0  0  0
  -20.1068   12.9687  -22.4164 N   0  0  0  0  0  0  0  0  0  0  0  0
  -20.9098   13.3075  -21.3768 N   0  0  0  0  0  0  0  0  0  0  0  0
  -21.5321   19.0250  -30.8315 N   0  0  0  0  0  0  0  0  0  0  0  0
  -20.4344   19.8055  -30.5507 N   0  0  0  0  0  0  0  0  0  0  0  0
  -20.4823   15.2612  -25.8244 N   0  0  0  0  0  0  0  0  0  0  0  0
  -18.8239   17.3742  -28.4289 N   0  0  0  0  0  0  0  0  0  0  0  0
  -23.6811   18.8828  -31.6217 O   0  0  0  0  0  0  0  0  0  0  0  0
  -19.4221   21.8832  -30.5316 O   0  0  0  0  0  0  0  0  0  0  0  0
  -22.4067   14.7196  -20.3540 O   0  0  0  0  0  0  0  0  0  0  0  0
  -21.0311   17.1364  -24.5606 O   0  0  0  0  0  0  0  0  0  0  0  0
  -20.4874   18.9182  -27.9270 O   0  0  0  0  0  0  0  0  0  0  0  0
  -23.2004   12.1872  -33.0782 H   0  0  0  0  0  0  0  0  0  0  0  0
  -24.5329   14.2240  -32.6156 H   0  0  0  0  0  0  0  0  0  0  0  0
  -21.2533   11.6306  -31.6795 H   0  0  0  0  0  0  0  0  0  0  0  0
  -23.9230   15.7124  -30.7524 H   0  0  0  0  0  0  0  0  0  0  0  0
  -19.7489   12.1791  -29.7619 H   0  0  0  0  0  0  0  0  0  0  0  0
  -19.1366   13.6595  -27.9037 H   0  0  0  0  0  0  0  0  0  0  0  0
  -22.4259   16.2589  -28.8417 H   0  0  0  0  0  0  0  0  0  0  0  0
  -23.5773   21.4468  -32.0335 H   0  0  0  0  0  0  0  0  0  0  0  0
  -21.6120   22.8152  -31.5285 H   0  0  0  0  0  0  0  0  0  0  0  0
  -22.2460   16.2433  -22.4518 H   0  0  0  0  0  0  0  0  0  0  0  0
  -19.4510   13.5482  -24.2787 H   0  0  0  0  0  0  0  0  0  0  0  0
  -18.4670   19.8996  -29.8173 H   0  0  0  0  0  0  0  0  0  0  0  0
  -18.8818   18.3964  -30.6858 H   0  0  0  0  0  0  0  0  0  0  0  0
  -18.7199   17.2077  -26.3979 H   0  0  0  0  0  0  0  0  0  0  0  0
  -18.1754   15.7874  -27.2997 H   0  0  0  0  0  0  0  0  0  0  0  0
  -21.0740   16.7990  -27.0775 H   0  0  0  0  0  0  0  0  0  0  0  0
  -20.9018   12.6458  -20.6072 H   0  0  0  0  0  0  0  0  0  0  0  0
  -21.4621   18.0323  -30.6309 H   0  0  0  0  0  0  0  0  0  0  0  0
  -20.3203   14.2740  -25.7766 H   0  0  0  0  0  0  0  0  0  0  0  0
  -18.1222   17.1161  -29.1204 H   0  0  0  0  0  0  0  0  0  0  0  0
  1  2  1  0  0  0  0
  1  3  2  0  0  0  0
  2  4  2  0  0  0  0
  3  8  1  0  0  0  0
  4  9  1  0  0  0  0
  5  6  2  0  0  0  0
  5  8  1  0  0  0  0
  6 10  1  0  0  0  0
  7  9  1  0  0  0  0
  7 10  2  0  0  0  0
  8  9  2  0  0  0  0
 10 23  1  0  0  0  0
 11 12  2  0  0  0  0
 11 16  1  0  0  0  0
 12 17  1  0  0  0  0
 13 15  2  0  0  0  0
 13 18  1  0  0  0  0
 14 15  1  0  0  0  0
 14 24  2  0  0  0  0
 15 19  1  0  0  0  0
 16 26  1  0  0  0  0
 16 30  2  0  0  0  0
 17 27  1  0  0  0  0
 17 31  2  0  0  0  0
 18 25  1  0  0  0  0
 18 32  2  0  0  0  0
 19 28  1  0  0  0  0
 19 33  2  0  0  0  0
 20 21  1  0  0  0  0
 20 29  1  0  0  0  0
 20 34  2  0  0  0  0
 21 27  1  0  0  0  0
 22 23  1  0  0  0  0
 22 29  1  0  0  0  0
 23 28  1  0  0  0  0
 24 25  1  0  0  0  0
 26 27  1  0  0  0  0
  1 35  1  0  0  0  0
  2 36  1  0  0  0  0
  3 37  1  0  0  0  0
  4 38  1  0  0  0  0
  5 39  1  0  0  0  0
  6 40  1  0  0  0  0
  7 41  1  0  0  0  0
 11 42  1  0  0  0  0
 12 43  1  0  0  0  0
 13 44  1  0  0  0  0
 14 45  1  0  0  0  0
 21 46  1  0  0  0  0
 21 47  1  0  0  0  0
 22 48  1  0  0  0  0
 22 49  1  0  0  0  0
 23 50  1  0  0  0  0
 25 51  1  0  0  0  0
 26 52  1  0  0  0  0
 28 53  1  0  0  0  0
 29 54  1  0  0  0  0
M  END
> <FRED Chemgauss4 score>
-9.008628

$$$$
44
  -OEChem-08042116223D

 52 54  0     1  0  0  0  0  0999 V2000
  -22.3450   12.4129  -30.0779 C   0  0  0  0  0  0  0  0  0  0  0  0
  -23.3616   13.3635  -29.9870 C   0  0  0  0  0  0  0  0  0  0  0  0
  -21.0765   12.6976  -29.5722 C   0  0  0  0  0  0  0  0  0  0  0  0
  -23.1098   14.5990  -29.3906 C   0  0  0  0  0  0  0  0  0  0  0  0
  -20.8247   13.9331  -28.9758 C   0  0  0  0  0  0  0  0  0  0  0  0
  -21.8413   14.8838  -28.8849 C   0  0  0  0  0  0  0  0  0  0  0  0
  -21.0335   14.6017  -21.0528 C   0  0  0  0  0  0  0  0  0  0  0  0
  -20.6885   15.8651  -21.2978 C   0  0  0  0  0  0  0  0  0  0  0  0
  -19.6299   22.2889  -25.1800 C   0  0  0  0  0  0  0  0  0  0  0  0
  -18.5075   24.1362  -24.5377 C   0  0  0  0  0  0  0  0  0  0  0  0
  -18.5734   21.7273  -25.7873 C   0  0  0  0  0  0  0  0  0  0  0  0
  -20.9878   13.5812  -22.1168 C   0  0  0  0  0  0  0  0  0  0  0  0
  -20.2454   16.2980  -22.6406 C   0  0  0  0  0  0  0  0  0  0  0  0
  -17.2834   22.4655  -25.7786 C   0  0  0  0  0  0  0  0  0  0  0  0
  -18.6628   20.4478  -26.4333 C   0  0  0  0  0  0  0  0  0  0  0  0
  -19.4964   20.2017  -27.4521 C   0  0  0  0  0  0  0  0  0  0  0  0
  -19.5362   18.8492  -28.0738 C   0  0  0  0  0  0  0  0  0  0  0  0
  -20.9859   15.7529  -25.8585 C   0  0  0  0  0  0  0  0  0  0  0  0
  -19.7868   15.6802  -24.9480 C   0  0  0  0  0  0  0  0  0  0  0  0
  -21.0757   17.2926  -29.2303 C   0  0  0  0  0  0  0  0  0  0  0  0
  -21.5664   16.2290  -28.2355 C   0  0  2  0  0  0  0  0  0  0  0  0
  -19.6345   23.5038  -24.5385 N   0  0  0  0  0  0  0  0  0  0  0  0
  -17.3477   23.6795  -25.1203 N   0  0  0  0  0  0  0  0  0  0  0  0
  -20.5745   14.0096  -23.3520 N   0  0  0  0  0  0  0  0  0  0  0  0
  -20.2195   15.3173  -23.5906 N   0  0  0  0  0  0  0  0  0  0  0  0
  -20.7890   18.5513  -28.5823 N   0  0  0  0  0  0  0  0  0  0  0  0
  -20.6039   16.0892  -27.1361 N   0  0  0  0  0  0  0  0  0  0  0  0
  -21.3106   12.4213  -21.8694 O   0  0  0  0  0  0  0  0  0  0  0  0
  -19.9367   17.4759  -22.8145 O   0  0  0  0  0  0  0  0  0  0  0  0
  -16.2668   22.0280  -26.3087 O   0  0  0  0  0  0  0  0  0  0  0  0
  -18.5585   18.1090  -28.1111 O   0  0  0  0  0  0  0  0  0  0  0  0
  -22.1344   15.5338  -25.4823 O   0  0  0  0  0  0  0  0  0  0  0  0
  -22.5416   11.4504  -30.5412 H   0  0  0  0  0  0  0  0  0  0  0  0
  -24.3496   13.1416  -30.3797 H   0  0  0  0  0  0  0  0  0  0  0  0
  -20.2851   11.9573  -29.6419 H   0  0  0  0  0  0  0  0  0  0  0  0
  -23.9079   15.3338  -29.3243 H   0  0  0  0  0  0  0  0  0  0  0  0
  -19.8334   14.1462  -28.5847 H   0  0  0  0  0  0  0  0  0  0  0  0
  -21.3571   14.2918  -20.0656 H   0  0  0  0  0  0  0  0  0  0  0  0
  -20.7234   16.6131  -20.5135 H   0  0  0  0  0  0  0  0  0  0  0  0
  -20.5893   21.7791  -25.1656 H   0  0  0  0  0  0  0  0  0  0  0  0
  -18.3954   25.1181  -24.0531 H   0  0  0  0  0  0  0  0  0  0  0  0
  -18.0043   19.6783  -26.0417 H   0  0  0  0  0  0  0  0  0  0  0  0
  -20.1546   20.9717  -27.8426 H   0  0  0  0  0  0  0  0  0  0  0  0
  -19.0887   14.9234  -25.3179 H   0  0  0  0  0  0  0  0  0  0  0  0
  -19.2850   16.6517  -24.9174 H   0  0  0  0  0  0  0  0  0  0  0  0
  -20.1431   16.9716  -29.7083 H   0  0  0  0  0  0  0  0  0  0  0  0
  -21.8034   17.4917  -30.0241 H   0  0  0  0  0  0  0  0  0  0  0  0
  -22.5015   16.5944  -27.7912 H   0  0  0  0  0  0  0  0  0  0  0  0
  -16.5090   24.2499  -25.0674 H   0  0  0  0  0  0  0  0  0  0  0  0
  -20.5191   13.3617  -24.1318 H   0  0  0  0  0  0  0  0  0  0  0  0
  -21.5523   19.2138  -28.4802 H   0  0  0  0  0  0  0  0  0  0  0  0
  -19.6284   16.2453  -27.3242 H   0  0  0  0  0  0  0  0  0  0  0  0
  1  2  1  0  0  0  0
  1  3  2  0  0  0  0
  2  4  2  0  0  0  0
  3  5  1  0  0  0  0
  4  6  1  0  0  0  0
  5  6  2  0  0  0  0
  6 21  1  0  0  0  0
  7  8  2  0  0  0  0
  7 12  1  0  0  0  0
  8 13  1  0  0  0  0
  9 11  2  0  0  0  0
  9 22  1  0  0  0  0
 10 22  2  0  0  0  0
 10 23  1  0  0  0  0
 11 14  1  0  0  0  0
 11 15  1  0  0  0  0
 12 24  1  0  0  0  0
 12 28  2  0  0  0  0
 13 25  1  0  0  0  0
 13 29  2  0  0  0  0
 14 23  1  0  0  0  0
 14 30  2  0  0  0  0
 15 16  2  0  0  0  0
 16 17  1  0  0  0  0
 17 26  1  0  0  0  0
 17 31  2  0  0  0  0
 18 19  1  0  0  0  0
 18 27  1  0  0  0  0
 18 32  2  0  0  0  0
 19 25  1  0  0  0  0
 20 21  1  0  0  0  0
 20 26  1  0  0  0  0
 21 27  1  0  0  0  0
 24 25  1  0  0  0  0
  1 33  1  0  0  0  0
  2 34  1  0  0  0  0
  3 35  1  0  0  0  0
  4 36  1  0  0  0  0
  5 37  1  0  0  0  0
  7 38  1  0  0  0  0
  8 39  1  0  0  0  0
  9 40  1  0  0  0  0
 10 41  1  0  0  0  0
 15 42  1  0  0  0  0
 16 43  1  0  0  0  0
 19 44  1  0  0  0  0
 19 45  1  0  0  0  0
 20 46  1  0  0  0  0
 20 47  1  0  0  0  0
 21 48  1  0  0  0  0
 23 49  1  0  0  0  0
 24 50  1  0  0  0  0
 26 51  1  0  0  0  0
 27 52  1  0  0  0  0
M  END
> <FRED Chemgauss4 score>
-8.811074

$$$$
26
  -OEChem-08042116223D

 56 59  0     1  0  0  0  0  0999 V2000
  -23.4603   14.9327  -31.2582 C   0  0  0  0  0  0  0  0  0  0  0  0
  -22.7718   16.1535  -31.1945 C   0  0  0  0  0  0  0  0  0  0  0  0
  -23.1396   13.8901  -30.3875 C   0  0  0  0  0  0  0  0  0  0  0  0
  -21.7539   16.3495  -30.2581 C   0  0  0  0  0  0  0  0  0  0  0  0
  -22.1377   14.0978  -29.4535 C   0  0  0  0  0  0  0  0  0  0  0  0
  -21.4510   15.3172  -29.3830 C   0  0  0  0  0  0  0  0  0  0  0  0
  -21.1399   18.1933  -22.6027 C   0  0  0  0  0  0  0  0  0  0  0  0
  -21.0522   16.5173  -20.8677 C   0  0  0  0  0  0  0  0  0  0  0  0
  -19.6908   21.2019  -25.6040 C   0  0  0  0  0  0  0  0  0  0  0  0
  -21.5967   17.2986  -23.4855 C   0  0  0  0  0  0  0  0  0  0  0  0
  -18.6761   22.9539  -24.6111 C   0  0  0  0  0  0  0  0  0  0  0  0
  -18.6047   20.8279  -26.2974 C   0  0  0  0  0  0  0  0  0  0  0  0
  -20.8564   17.7906  -21.2435 C   0  0  0  0  0  0  0  0  0  0  0  0
  -21.5627   15.5052  -21.8426 C   0  0  0  0  0  0  0  0  0  0  0  0
  -17.3595   21.6234  -26.1362 C   0  0  0  0  0  0  0  0  0  0  0  0
  -18.6209   19.6922  -27.1762 C   0  0  0  0  0  0  0  0  0  0  0  0
  -19.4054   18.6256  -26.9753 C   0  0  0  0  0  0  0  0  0  0  0  0
  -19.3690   17.4822  -27.9287 C   0  0  0  0  0  0  0  0  0  0  0  0
  -21.1992   14.6926  -25.0975 C   0  0  0  0  0  0  0  0  0  0  0  0
  -21.6018   13.1168  -28.4570 C   0  0  0  0  0  0  0  0  0  0  0  0
  -20.3833   15.2613  -28.3269 C   0  0  2  0  0  0  0  0  0  0  0  0
  -20.8381   14.0396  -27.4871 C   0  0  1  0  0  0  0  0  0  0  0  0
  -20.3475   18.8447  -20.3098 C   0  0  0  0  0  0  0  0  0  0  0  0
  -22.3108   15.0500  -24.1443 C   0  0  0  0  0  0  0  0  0  0  0  0
  -19.7646   22.2698  -24.7428 N   0  0  0  0  0  0  0  0  0  0  0  0
  -17.4928   22.6837  -25.2593 N   0  0  0  0  0  0  0  0  0  0  0  0
  -21.8071   15.9850  -23.1275 N   0  0  0  0  0  0  0  0  0  0  0  0
  -20.2447   16.4704  -27.5630 N   0  0  0  0  0  0  0  0  0  0  0  0
  -21.6848   14.4100  -26.3711 N   0  0  0  0  0  0  0  0  0  0  0  0
  -21.7303   14.3479  -21.4608 O   0  0  0  0  0  0  0  0  0  0  0  0
  -16.3203   21.3539  -26.7305 O   0  0  0  0  0  0  0  0  0  0  0  0
  -18.6362   17.4639  -28.9125 O   0  0  0  0  0  0  0  0  0  0  0  0
  -20.0149   14.6619  -24.7735 O   0  0  0  0  0  0  0  0  0  0  0  0
  -24.2528   14.8007  -31.9895 H   0  0  0  0  0  0  0  0  0  0  0  0
  -23.0367   16.9558  -31.8779 H   0  0  0  0  0  0  0  0  0  0  0  0
  -23.6651   12.9428  -30.4448 H   0  0  0  0  0  0  0  0  0  0  0  0
  -21.2166   17.2924  -30.2193 H   0  0  0  0  0  0  0  0  0  0  0  0
  -20.9777   19.2250  -22.8951 H   0  0  0  0  0  0  0  0  0  0  0  0
  -20.8511   16.1769  -19.8578 H   0  0  0  0  0  0  0  0  0  0  0  0
  -20.6191   20.6447  -25.6960 H   0  0  0  0  0  0  0  0  0  0  0  0
  -21.8163   17.5768  -24.5103 H   0  0  0  0  0  0  0  0  0  0  0  0
  -18.6202   23.8300  -23.9472 H   0  0  0  0  0  0  0  0  0  0  0  0
  -17.9492   19.7489  -28.0275 H   0  0  0  0  0  0  0  0  0  0  0  0
  -20.0763   18.5697  -26.1236 H   0  0  0  0  0  0  0  0  0  0  0  0
  -22.4366   12.5993  -27.9641 H   0  0  0  0  0  0  0  0  0  0  0  0
  -20.9319   12.3804  -28.9188 H   0  0  0  0  0  0  0  0  0  0  0  0
  -19.3846   15.0429  -28.7802 H   0  0  0  0  0  0  0  0  0  0  0  0
  -19.9873   13.5316  -27.0847 H   0  0  0  0  0  0  0  0  0  0  0  0
  -21.1863   19.3294  -19.8136 H   0  0  0  0  0  0  0  0  0  0  0  0
  -19.7794   19.5862  -20.8694 H   0  0  0  0  0  0  0  0  0  0  0  0
  -19.6982   18.3896  -19.5635 H   0  0  0  0  0  0  0  0  0  0  0  0
  -23.1298   15.5230  -24.6941 H   0  0  0  0  0  0  0  0  0  0  0  0
  -22.6804   14.1468  -23.6500 H   0  0  0  0  0  0  0  0  0  0  0  0
  -16.6885   23.2807  -25.0909 H   0  0  0  0  0  0  0  0  0  0  0  0
  -20.7932   16.5608  -26.7099 H   0  0  0  0  0  0  0  0  0  0  0  0
  -22.6909   14.4669  -26.5272 H   0  0  0  0  0  0  0  0  0  0  0  0
  1  2  1  0  0  0  0
  1  3  2  0  0  0  0
  2  4  2  0  0  0  0
  3  5  1  0  0  0  0
  4  6  1  0  0  0  0
  5  6  2  0  0  0  0
  5 20  1  0  0  0  0
  6 21  1  0  0  0  0
  7 10  2  0  0  0  0
  7 13  1  0  0  0  0
  8 13  2  0  0  0  0
  8 14  1  0  0  0  0
  9 12  2  0  0  0  0
  9 25  1  0  0  0  0
 10 27  1  0  0  0  0
 11 25  2  0  0  0  0
 11 26  1  0  0  0  0
 12 15  1  0  0  0  0
 12 16  1  0  0  0  0
 13 23  1  0  0  0  0
 14 27  1  0  0  0  0
 14 30  2  0  0  0  0
 15 26  1  0  0  0  0
 15 31  2  0  0  0  0
 16 17  2  0  0  0  0
 17 18  1  0  0  0  0
 18 28  1  0  0  0  0
 18 32  2  0  0  0  0
 19 24  1  0  0  0  0
 19 29  1  0  0  0  0
 19 33  2  0  0  0  0
 20 22  1  0  0  0  0
 21 22  1  0  0  0  0
 21 28  1  0  0  0  0
 22 29  1  0  0  0  0
 24 27  1  0  0  0  0
  1 34  1  0  0  0  0
  2 35  1  0  0  0  0
  3 36  1  0  0  0  0
  4 37  1  0  0  0  0
  7 38  1  0  0  0  0
  8 39  1  0  0  0  0
  9 40  1  0  0  0  0
 10 41  1  0  0  0  0
 11 42  1  0  0  0  0
 16 43  1  0  0  0  0
 17 44  1  0  0  0  0
 20 45  1  0  0  0  0
 20 46  1  0  0  0  0
 21 47  1  0  0  0  0
 22 48  1  0  0  0  0
 23 49  1  0  0  0  0
 23 50  1  0  0  0  0
 23 51  1  0  0  0  0
 24 52  1  0  0  0  0
 24 53  1  0  0  0  0
 26 54  1  0  0  0  0
 28 55  1  0  0  0  0
 29 56  1  0  0  0  0
M  END
> <FRED Chemgauss4 score>
-9.712972

$$$$
23
  -OEChem-08042116223D

 55 58  0     1  0  0  0  0  0999 V2000
  -20.8405   12.7837  -28.8200 C   0  0  0  0  0  0  0  0  0  0  0  0
  -20.9084   13.2204  -27.4876 C   0  0  0  0  0  0  0  0  0  0  0  0
  -17.8299   23.2849  -25.0239 C   0  0  0  0  0  0  0  0  0  0  0  0
  -18.9806   22.5261  -25.2064 C   0  0  0  0  0  0  0  0  0  0  0  0
  -21.2722   13.6068  -29.8623 C   0  0  0  0  0  0  0  0  0  0  0  0
  -21.4077   14.4873  -27.1778 C   0  0  0  0  0  0  0  0  0  0  0  0
  -16.6654   22.8555  -25.6399 C   0  0  0  0  0  0  0  0  0  0  0  0
  -17.7186   21.0333  -26.5611 C   0  0  0  0  0  0  0  0  0  0  0  0
  -18.9324   21.3772  -25.9881 C   0  0  0  0  0  0  0  0  0  0  0  0
  -21.7773   14.8567  -29.5458 C   0  0  0  0  0  0  0  0  0  0  0  0
  -21.8407   15.2958  -28.2166 C   0  0  0  0  0  0  0  0  0  0  0  0
  -20.3472   20.6027  -32.6903 C   0  0  0  0  0  0  0  0  0  0  0  0
  -19.7514   21.3345  -31.6069 C   0  0  0  0  0  0  0  0  0  0  0  0
  -21.6164   20.1978  -32.5965 C   0  0  0  0  0  0  0  0  0  0  0  0
  -20.4320   21.6310  -30.4883 C   0  0  0  0  0  0  0  0  0  0  0  0
  -21.8682   21.1752  -30.3779 C   0  0  0  0  0  0  0  0  0  0  0  0
  -20.1343   20.5514  -26.2002 C   0  0  0  0  0  0  0  0  0  0  0  0
  -20.2901   19.6786  -27.2065 C   0  0  0  0  0  0  0  0  0  0  0  0
  -21.5489   18.8876  -27.3166 C   0  0  0  0  0  0  0  0  0  0  0  0
  -23.7664   18.4945  -31.2269 C   0  0  0  0  0  0  0  0  0  0  0  0
  -22.2634   15.9163  -30.4863 C   0  0  0  0  0  0  0  0  0  0  0  0
  -22.3857   16.6917  -28.1356 C   0  0  2  0  0  0  0  0  0  0  0  0
  -23.0600   16.8177  -29.5237 C   0  0  1  0  0  0  0  0  0  0  0  0
  -23.7549   19.9828  -31.4657 C   0  0  0  0  0  0  0  0  0  0  0  0
  -16.5798   21.7453  -26.4065 N   0  0  0  0  0  0  0  0  0  0  0  0
  -22.3679   20.4702  -31.4750 N   0  0  0  0  0  0  0  0  0  0  0  0
  -19.9287   22.3204  -29.4247 N   0  0  0  0  0  0  0  0  0  0  0  0
  -21.3363   17.6509  -27.9103 N   0  0  0  0  0  0  0  0  0  0  0  0
  -23.1813   18.1648  -30.0076 N   0  0  0  0  0  0  0  0  0  0  0  0
  -22.5098   21.4376  -29.3598 O   0  0  0  0  0  0  0  0  0  0  0  0
  -22.6299   19.3096  -26.9190 O   0  0  0  0  0  0  0  0  0  0  0  0
  -24.2406   17.6863  -32.0209 O   0  0  0  0  0  0  0  0  0  0  0  0
  -20.4438   11.7965  -29.0414 H   0  0  0  0  0  0  0  0  0  0  0  0
  -20.5642   12.5670  -26.6906 H   0  0  0  0  0  0  0  0  0  0  0  0
  -17.8440   24.1841  -24.4190 H   0  0  0  0  0  0  0  0  0  0  0  0
  -19.9070   22.8420  -24.7333 H   0  0  0  0  0  0  0  0  0  0  0  0
  -21.2105   13.2703  -30.8915 H   0  0  0  0  0  0  0  0  0  0  0  0
  -21.4510   14.8253  -26.1479 H   0  0  0  0  0  0  0  0  0  0  0  0
  -15.7410   23.4122  -25.5277 H   0  0  0  0  0  0  0  0  0  0  0  0
  -17.6144   20.1484  -27.1825 H   0  0  0  0  0  0  0  0  0  0  0  0
  -19.7503   20.3917  -33.5697 H   0  0  0  0  0  0  0  0  0  0  0  0
  -18.7175   21.6426  -31.7291 H   0  0  0  0  0  0  0  0  0  0  0  0
  -22.0951   19.6436  -33.3961 H   0  0  0  0  0  0  0  0  0  0  0  0
  -20.9176   20.6753  -25.4558 H   0  0  0  0  0  0  0  0  0  0  0  0
  -19.5188   19.5143  -27.9514 H   0  0  0  0  0  0  0  0  0  0  0  0
  -21.4068   16.4380  -30.9275 H   0  0  0  0  0  0  0  0  0  0  0  0
  -22.9036   15.5090  -31.2745 H   0  0  0  0  0  0  0  0  0  0  0  0
  -23.1239   16.7954  -27.3337 H   0  0  0  0  0  0  0  0  0  0  0  0
  -24.0859   16.4289  -29.4479 H   0  0  0  0  0  0  0  0  0  0  0  0
  -24.2212   20.2048  -32.4301 H   0  0  0  0  0  0  0  0  0  0  0  0
  -24.3086   20.4903  -30.6703 H   0  0  0  0  0  0  0  0  0  0  0  0
  -18.9838   22.6362  -29.4640 H   0  0  0  0  0  0  0  0  0  0  0  0
  -20.5207   22.4877  -28.6402 H   0  0  0  0  0  0  0  0  0  0  0  0
  -20.3900   17.4100  -28.2010 H   0  0  0  0  0  0  0  0  0  0  0  0
  -22.8192   18.9204  -29.4264 H   0  0  0  0  0  0  0  0  0  0  0  0
  1  2  1  0  0  0  0
  1  5  2  0  0  0  0
  2  6  2  0  0  0  0
  3  4  2  0  0  0  0
  3  7  1  0  0  0  0
  4  9  1  0  0  0  0
  5 10  1  0  0  0  0
  6 11  1  0  0  0  0
  7 25  2  0  0  0  0
  8  9  2  0  0  0  0
  8 25  1  0  0  0  0
  9 17  1  0  0  0  0
 10 11  2  0  0  0  0
 10 21  1  0  0  0  0
 11 22  1  0  0  0  0
 12 13  1  0  0  0  0
 12 14  2  0  0  0  0
 13 15  2  0  0  0  0
 14 26  1  0  0  0  0
 15 16  1  0  0  0  0
 15 27  1  0  0  0  0
 16 26  1  0  0  0  0
 16 30  2  0  0  0  0
 17 18  2  0  0  0  0
 18 19  1  0  0  0  0
 19 28  1  0  0  0  0
 19 31  2  0  0  0  0
 20 24  1  0  0  0  0
 20 29  1  0  0  0  0
 20 32  2  0  0  0  0
 21 23  1  0  0  0  0
 22 23  1  0  0  0  0
 22 28  1  0  0  0  0
 23 29  1  0  0  0  0
 24 26  1  0  0  0  0
  1 33  1  0  0  0  0
  2 34  1  0  0  0  0
  3 35  1  0  0  0  0
  4 36  1  0  0  0  0
  5 37  1  0  0  0  0
  6 38  1  0  0  0  0
  7 39  1  0  0  0  0
  8 40  1  0  0  0  0
 12 41  1  0  0  0  0
 13 42  1  0  0  0  0
 14 43  1  0  0  0  0
 17 44  1  0  0  0  0
 18 45  1  0  0  0  0
 21 46  1  0  0  0  0
 21 47  1  0  0  0  0
 22 48  1  0  0  0  0
 23 49  1  0  0  0  0
 24 50  1  0  0  0  0
 24 51  1  0  0  0  0
 27 52  1  0  0  0  0
 27 53  1  0  0  0  0
 28 54  1  0  0  0  0
 29 55  1  0  0  0  0
M  END
> <FRED Chemgauss4 score>
-11.056952

$$$$
54
  -OEChem-08042116223D

 58 61  0     1  0  0  0  0  0999 V2000
  -16.8589   24.1803  -25.3901 C   0  0  0  0  0  0  0  0  0  0  0  0
  -18.1590   24.2991  -24.9077 C   0  0  0  0  0  0  0  0  0  0  0  0
  -16.4945   23.0680  -26.1493 C   0  0  0  0  0  0  0  0  0  0  0  0
  -19.0996   23.3061  -25.1828 C   0  0  0  0  0  0  0  0  0  0  0  0
  -17.0788   20.9325  -27.1985 C   0  0  0  0  0  0  0  0  0  0  0  0
  -18.0194   19.9395  -27.4735 C   0  0  0  0  0  0  0  0  0  0  0  0
  -19.6839   21.1705  -26.2319 C   0  0  0  0  0  0  0  0  0  0  0  0
  -17.4282   22.0589  -26.4359 C   0  0  0  0  0  0  0  0  0  0  0  0
  -18.7502   22.1797  -25.9453 C   0  0  0  0  0  0  0  0  0  0  0  0
  -19.3194   20.0582  -26.9911 C   0  0  0  0  0  0  0  0  0  0  0  0
  -21.9233   12.6923  -29.3822 C   0  0  0  0  0  0  0  0  0  0  0  0
  -22.4699   13.1595  -30.5040 C   0  0  0  0  0  0  0  0  0  0  0  0
  -22.4563   15.4402  -22.2849 C   0  0  0  0  0  0  0  0  0  0  0  0
  -22.5845   13.9585  -20.5899 C   0  0  0  0  0  0  0  0  0  0  0  0
  -21.3324   14.9177  -22.7992 C   0  0  0  0  0  0  0  0  0  0  0  0
  -21.8862   13.5115  -28.1562 C   0  0  0  0  0  0  0  0  0  0  0  0
  -23.0619   14.5131  -30.5690 C   0  0  0  0  0  0  0  0  0  0  0  0
  -20.7306   13.7398  -22.1212 C   0  0  0  0  0  0  0  0  0  0  0  0
  -20.7110   15.4641  -23.9729 C   0  0  0  0  0  0  0  0  0  0  0  0
  -20.7861   16.7601  -24.3018 C   0  0  0  0  0  0  0  0  0  0  0  0
  -20.1169   17.2569  -25.5358 C   0  0  0  0  0  0  0  0  0  0  0  0
  -22.4648   17.6042  -29.4337 C   0  0  0  0  0  0  0  0  0  0  0  0
  -23.5757   16.5858  -29.4045 C   0  0  0  0  0  0  0  0  0  0  0  0
  -21.5538   19.4916  -28.0840 C   0  0  0  0  0  0  0  0  0  0  0  0
  -20.3237   18.9956  -27.2864 C   0  0  2  0  0  0  0  0  0  0  0  0
  -23.1172   14.9826  -21.1706 N   0  0  0  0  0  0  0  0  0  0  0  0
  -21.4371   13.3244  -21.0079 N   0  0  0  0  0  0  0  0  0  0  0  0
  -22.4410   14.7624  -28.2444 N   0  0  0  0  0  0  0  0  0  0  0  0
  -23.0036   15.2315  -29.4091 N   0  0  0  0  0  0  0  0  0  0  0  0
  -20.7916   18.3267  -26.0546 N   0  0  0  0  0  0  0  0  0  0  0  0
  -22.4995   18.4313  -28.3164 N   0  0  0  0  0  0  0  0  0  0  0  0
  -21.3770   13.0614  -27.1321 O   0  0  0  0  0  0  0  0  0  0  0  0
  -23.5550   14.8968  -31.6285 O   0  0  0  0  0  0  0  0  0  0  0  0
  -19.7050   13.1981  -22.5218 O   0  0  0  0  0  0  0  0  0  0  0  0
  -19.1008   16.7415  -25.9909 O   0  0  0  0  0  0  0  0  0  0  0  0
  -21.6387   17.6773  -30.3395 O   0  0  0  0  0  0  0  0  0  0  0  0
  -16.1274   24.9536  -25.1752 H   0  0  0  0  0  0  0  0  0  0  0  0
  -18.4417   25.1651  -24.3164 H   0  0  0  0  0  0  0  0  0  0  0  0
  -15.4725   22.9966  -26.5162 H   0  0  0  0  0  0  0  0  0  0  0  0
  -20.1100   23.4197  -24.7952 H   0  0  0  0  0  0  0  0  0  0  0  0
  -16.0682   20.8187  -27.5856 H   0  0  0  0  0  0  0  0  0  0  0  0
  -17.7272   19.0761  -28.0654 H   0  0  0  0  0  0  0  0  0  0  0  0
  -20.7045   21.2513  -25.8608 H   0  0  0  0  0  0  0  0  0  0  0  0
  -21.4915   11.6988  -29.3423 H   0  0  0  0  0  0  0  0  0  0  0  0
  -22.4953   12.5548  -31.4037 H   0  0  0  0  0  0  0  0  0  0  0  0
  -22.9252   16.3013  -22.7531 H   0  0  0  0  0  0  0  0  0  0  0  0
  -23.0290   13.5080  -19.6893 H   0  0  0  0  0  0  0  0  0  0  0  0
  -20.1674   14.7540  -24.5888 H   0  0  0  0  0  0  0  0  0  0  0  0
  -21.3303   17.4691  -23.6855 H   0  0  0  0  0  0  0  0  0  0  0  0
  -24.1753   16.7204  -28.4994 H   0  0  0  0  0  0  0  0  0  0  0  0
  -24.2147   16.7087  -30.2839 H   0  0  0  0  0  0  0  0  0  0  0  0
  -22.0950   20.2750  -27.5413 H   0  0  0  0  0  0  0  0  0  0  0  0
  -21.2726   19.8990  -29.0609 H   0  0  0  0  0  0  0  0  0  0  0  0
  -19.8544   18.2000  -27.8960 H   0  0  0  0  0  0  0  0  0  0  0  0
  -21.0944   12.5245  -20.4841 H   0  0  0  0  0  0  0  0  0  0  0  0
  -22.4504   15.3814  -27.4397 H   0  0  0  0  0  0  0  0  0  0  0  0
  -21.6359   18.6856  -25.6546 H   0  0  0  0  0  0  0  0  0  0  0  0
  -23.2327   18.2790  -27.6260 H   0  0  0  0  0  0  0  0  0  0  0  0
  1  2  1  0  0  0  0
  1  3  2  0  0  0  0
  2  4  2  0  0  0  0
  3  8  1  0  0  0  0
  4  9  1  0  0  0  0
  5  6  2  0  0  0  0
  5  8  1  0  0  0  0
  6 10  1  0  0  0  0
  7  9  1  0  0  0  0
  7 10  2  0  0  0  0
  8  9  2  0  0  0  0
 10 25  1  0  0  0  0
 11 12  2  0  0  0  0
 11 16  1  0  0  0  0
 12 17  1  0  0  0  0
 13 15  2  0  0  0  0
 13 26  1  0  0  0  0
 14 26  2  0  0  0  0
 14 27  1  0  0  0  0
 15 18  1  0  0  0  0
 15 19  1  0  0  0  0
 16 28  1  0  0  0  0
 16 32  2  0  0  0  0
 17 29  1  0  0  0  0
 17 33  2  0  0  0  0
 18 27  1  0  0  0  0
 18 34  2  0  0  0  0
 19 20  2  0  0  0  0
 20 21  1  0  0  0  0
 21 30  1  0  0  0  0
 21 35  2  0  0  0  0
 22 23  1  0  0  0  0
 22 31  1  0  0  0  0
 22 36  2  0  0  0  0
 23 29  1  0  0  0  0
 24 25  1  0  0  0  0
 24 31  1  0  0  0  0
 25 30  1  0  0  0  0
 28 29  1  0  0  0  0
  1 37  1  0  0  0  0
  2 38  1  0  0  0  0
  3 39  1  0  0  0  0
  4 40  1  0  0  0  0
  5 41  1  0  0  0  0
  6 42  1  0  0  0  0
  7 43  1  0  0  0  0
 11 44  1  0  0  0  0
 12 45  1  0  0  0  0
 13 46  1  0  0  0  0
 14 47  1  0  0  0  0
 19 48  1  0  0  0  0
 20 49  1  0  0  0  0
 23 50  1  0  0  0  0
 23 51  1  0  0  0  0
 24 52  1  0  0  0  0
 24 53  1  0  0  0  0
 25 54  1  0  0  0  0
 27 55  1  0  0  0  0
 28 56  1  0  0  0  0
 30 57  1  0  0  0  0
 31 58  1  0  0  0  0
M  END
> <FRED Chemgauss4 score>
-7.119575

$$$$
30
  -OEChem-08042116223D

 58 62  0     1  0  0  0  0  0999 V2000
  -23.3456   12.4483  -28.9081 C   0  0  0  0  0  0  0  0  0  0  0  0
  -23.9213   13.5667  -28.3126 C   0  0  0  0  0  0  0  0  0  0  0  0
  -21.9845   12.4428  -29.2144 C   0  0  0  0  0  0  0  0  0  0  0  0
  -23.1381   14.6839  -28.0212 C   0  0  0  0  0  0  0  0  0  0  0  0
  -19.8094   13.5705  -29.2296 C   0  0  0  0  0  0  0  0  0  0  0  0
  -19.0263   14.6877  -28.9382 C   0  0  0  0  0  0  0  0  0  0  0  0
  -20.9631   15.8117  -28.0364 C   0  0  0  0  0  0  0  0  0  0  0  0
  -21.2094   14.6448  -23.3827 C   0  0  0  0  0  0  0  0  0  0  0  0
  -21.1810   13.5586  -28.9282 C   0  0  0  0  0  0  0  0  0  0  0  0
  -21.7665   14.6959  -28.3227 C   0  0  0  0  0  0  0  0  0  0  0  0
  -19.6020   15.8061  -28.3428 C   0  0  0  0  0  0  0  0  0  0  0  0
  -22.0801   15.2386  -22.5012 C   0  0  0  0  0  0  0  0  0  0  0  0
  -20.5884   15.7202  -24.0368 C   0  0  0  0  0  0  0  0  0  0  0  0
  -22.5146   20.9670  -32.8207 C   0  0  0  0  0  0  0  0  0  0  0  0
  -21.4609   21.7121  -32.4894 C   0  0  0  0  0  0  0  0  0  0  0  0
  -22.7099   17.4870  -21.8948 C   0  0  0  0  0  0  0  0  0  0  0  0
  -23.5782   16.9979  -20.9977 C   0  0  0  0  0  0  0  0  0  0  0  0
  -23.0109   14.6762  -21.5387 C   0  0  0  0  0  0  0  0  0  0  0  0
  -22.9738   19.8694  -31.9487 C   0  0  0  0  0  0  0  0  0  0  0  0
  -20.7092   21.4738  -31.2383 C   0  0  0  0  0  0  0  0  0  0  0  0
  -19.5503   15.6504  -25.0972 C   0  0  0  0  0  0  0  0  0  0  0  0
  -19.6353   18.9146  -29.3681 C   0  0  0  0  0  0  0  0  0  0  0  0
  -20.4717   20.1581  -29.2064 C   0  0  0  0  0  0  0  0  0  0  0  0
  -18.1084   16.9649  -26.6299 C   0  0  0  0  0  0  0  0  0  0  0  0
  -18.7630   16.9996  -28.0318 C   0  0  2  0  0  0  0  0  0  0  0  0
  -21.0207   16.9096  -23.6145 N   0  0  0  0  0  0  0  0  0  0  0  0
  -21.9438   16.6137  -22.6643 N   0  0  0  0  0  0  0  0  0  0  0  0
  -23.7303   15.6379  -20.8187 N   0  0  0  0  0  0  0  0  0  0  0  0
  -22.2586   19.6696  -30.7960 N   0  0  0  0  0  0  0  0  0  0  0  0
  -21.1733   20.4479  -30.4656 N   0  0  0  0  0  0  0  0  0  0  0  0
  -19.0942   16.8680  -25.5851 N   0  0  0  0  0  0  0  0  0  0  0  0
  -19.5265   18.2571  -28.1712 N   0  0  0  0  0  0  0  0  0  0  0  0
  -23.1637   13.4694  -21.3628 O   0  0  0  0  0  0  0  0  0  0  0  0
  -23.9480   19.1940  -32.2733 O   0  0  0  0  0  0  0  0  0  0  0  0
  -19.7441   22.1906  -30.9781 O   0  0  0  0  0  0  0  0  0  0  0  0
  -19.1713   14.5517  -25.4945 O   0  0  0  0  0  0  0  0  0  0  0  0
  -19.1391   18.5682  -30.4369 O   0  0  0  0  0  0  0  0  0  0  0  0
  -23.9560   11.5793  -29.1348 H   0  0  0  0  0  0  0  0  0  0  0  0
  -24.9810   13.5704  -28.0749 H   0  0  0  0  0  0  0  0  0  0  0  0
  -21.5560   11.5572  -29.6794 H   0  0  0  0  0  0  0  0  0  0  0  0
  -23.6095   15.5473  -27.5559 H   0  0  0  0  0  0  0  0  0  0  0  0
  -19.3382   12.7072  -29.6954 H   0  0  0  0  0  0  0  0  0  0  0  0
  -17.9669   14.6753  -29.1804 H   0  0  0  0  0  0  0  0  0  0  0  0
  -21.4009   16.6930  -27.5704 H   0  0  0  0  0  0  0  0  0  0  0  0
  -21.0509   13.5855  -23.5262 H   0  0  0  0  0  0  0  0  0  0  0  0
  -23.0608   21.1479  -33.7394 H   0  0  0  0  0  0  0  0  0  0  0  0
  -21.1256   22.5181  -33.1327 H   0  0  0  0  0  0  0  0  0  0  0  0
  -22.5698   18.5488  -22.0559 H   0  0  0  0  0  0  0  0  0  0  0  0
  -24.1971   17.6307  -20.3746 H   0  0  0  0  0  0  0  0  0  0  0  0
  -21.2073   20.0065  -28.4109 H   0  0  0  0  0  0  0  0  0  0  0  0
  -19.8300   21.0060  -28.9494 H   0  0  0  0  0  0  0  0  0  0  0  0
  -17.4503   16.0961  -26.5153 H   0  0  0  0  0  0  0  0  0  0  0  0
  -17.5107   17.8614  -26.4335 H   0  0  0  0  0  0  0  0  0  0  0  0
  -17.9353   17.0725  -28.7629 H   0  0  0  0  0  0  0  0  0  0  0  0
  -24.4009   15.3169  -20.1266 H   0  0  0  0  0  0  0  0  0  0  0  0
  -22.5176   18.9316  -30.1486 H   0  0  0  0  0  0  0  0  0  0  0  0
  -19.5041   17.7359  -25.2477 H   0  0  0  0  0  0  0  0  0  0  0  0
  -19.9789   18.6411  -27.3647 H   0  0  0  0  0  0  0  0  0  0  0  0
  1  2  1  0  0  0  0
  1  3  2  0  0  0  0
  2  4  2  0  0  0  0
  3  9  1  0  0  0  0
  4 10  1  0  0  0  0
  5  6  2  0  0  0  0
  5  9  1  0  0  0  0
  6 11  1  0  0  0  0
  7 10  1  0  0  0  0
  7 11  2  0  0  0  0
  8 12  2  0  0  0  0
  8 13  1  0  0  0  0
  9 10  2  0  0  0  0
 11 25  1  0  0  0  0
 12 18  1  0  0  0  0
 12 27  1  0  0  0  0
 13 21  1  0  0  0  0
 13 26  2  0  0  0  0
 14 15  2  0  0  0  0
 14 19  1  0  0  0  0
 15 20  1  0  0  0  0
 16 17  2  0  0  0  0
 16 27  1  0  0  0  0
 17 28  1  0  0  0  0
 18 28  1  0  0  0  0
 18 33  2  0  0  0  0
 19 29  1  0  0  0  0
 19 34  2  0  0  0  0
 20 30  1  0  0  0  0
 20 35  2  0  0  0  0
 21 31  1  0  0  0  0
 21 36  2  0  0  0  0
 22 23  1  0  0  0  0
 22 32  1  0  0  0  0
 22 37  2  0  0  0  0
 23 30  1  0  0  0  0
 24 25  1  0  0  0  0
 24 31  1  0  0  0  0
 25 32  1  0  0  0  0
 26 27  1  0  0  0  0
 29 30  1  0  0  0  0
  1 38  1  0  0  0  0
  2 39  1  0  0  0  0
  3 40  1  0  0  0  0
  4 41  1  0  0  0  0
  5 42  1  0  0  0  0
  6 43  1  0  0  0  0
  7 44  1  0  0  0  0
  8 45  1  0  0  0  0
 14 46  1  0  0  0  0
 15 47  1  0  0  0  0
 16 48  1  0  0  0  0
 17 49  1  0  0  0  0
 23 50  1  0  0  0  0
 23 51  1  0  0  0  0
 24 52  1  0  0  0  0
 24 53  1  0  0  0  0
 25 54  1  0  0  0  0
 28 55  1  0  0  0  0
 29 56  1  0  0  0  0
 31 57  1  0  0  0  0
 32 58  1  0  0  0  0
M  END
> <FRED Chemgauss4 score>
-3.703505

$$$$
6
  -OEChem-08042116223D

 59 62  0     1  0  0  0  0  0999 V2000
  -23.8151   16.5753  -32.1886 C   0  0  0  0  0  0  0  0  0  0  0  0
  -23.5692   15.4475  -31.4125 C   0  0  0  0  0  0  0  0  0  0  0  0
  -23.2018   17.7856  -31.8692 C   0  0  0  0  0  0  0  0  0  0  0  0
  -22.7091   15.5292  -30.3173 C   0  0  0  0  0  0  0  0  0  0  0  0
  -22.3257   17.8762  -30.7768 C   0  0  0  0  0  0  0  0  0  0  0  0
  -22.0745   16.7391  -29.9870 C   0  0  0  0  0  0  0  0  0  0  0  0
  -22.2295   15.5980  -21.0444 C   0  0  0  0  0  0  0  0  0  0  0  0
  -21.4270   14.5346  -21.0645 C   0  0  0  0  0  0  0  0  0  0  0  0
  -18.9684   22.5301  -25.4990 C   0  0  0  0  0  0  0  0  0  0  0  0
  -17.3608   24.0869  -25.7766 C   0  0  0  0  0  0  0  0  0  0  0  0
  -18.3221   21.5832  -26.1961 C   0  0  0  0  0  0  0  0  0  0  0  0
  -22.7161   16.2070  -22.2966 C   0  0  0  0  0  0  0  0  0  0  0  0
  -20.9916   13.9198  -22.3371 C   0  0  0  0  0  0  0  0  0  0  0  0
  -16.9963   21.9201  -26.7775 C   0  0  0  0  0  0  0  0  0  0  0  0
  -18.8760   20.2725  -26.3870 C   0  0  0  0  0  0  0  0  0  0  0  0
  -20.0448   20.0575  -26.9999 C   0  0  0  0  0  0  0  0  0  0  0  0
  -20.5238   18.6672  -27.1422 C   0  0  0  0  0  0  0  0  0  0  0  0
  -20.0390   14.8433  -25.4095 C   0  0  0  0  0  0  0  0  0  0  0  0
  -21.7168   19.2090  -30.4323 C   0  0  0  0  0  0  0  0  0  0  0  0
  -20.4721   19.0608  -29.5701 C   0  0  0  0  0  0  0  0  0  0  0  0
  -21.1508   16.7962  -28.7775 C   0  0  1  0  0  0  0  0  0  0  0  0
  -21.0752   13.9564  -24.7677 C   0  0  0  0  0  0  0  0  0  0  0  0
  -19.9108   15.9152  -28.9799 C   0  0  0  0  0  0  0  0  0  0  0  0
  -19.2446   15.5467  -27.6652 C   0  0  0  0  0  0  0  0  0  0  0  0
  -18.5143   23.8057  -25.2662 N   0  0  0  0  0  0  0  0  0  0  0  0
  -16.5912   23.2149  -26.5117 N   0  0  0  0  0  0  0  0  0  0  0  0
  -22.2965   15.6180  -23.4616 N   0  0  0  0  0  0  0  0  0  0  0  0
  -21.4689   14.5189  -23.4676 N   0  0  0  0  0  0  0  0  0  0  0  0
  -20.7344   18.1779  -28.4325 N   0  0  0  0  0  0  0  0  0  0  0  0
  -20.1117   14.7969  -26.7991 N   0  0  0  0  0  0  0  0  0  0  0  0
  -23.4555   17.1879  -22.2555 O   0  0  0  0  0  0  0  0  0  0  0  0
  -20.2510   12.9383  -22.3011 O   0  0  0  0  0  0  0  0  0  0  0  0
  -16.3357   21.1169  -27.4287 O   0  0  0  0  0  0  0  0  0  0  0  0
  -20.7086   18.0219  -26.1087 O   0  0  0  0  0  0  0  0  0  0  0  0
  -19.2382   15.5195  -24.7694 O   0  0  0  0  0  0  0  0  0  0  0  0
  -24.4895   16.5151  -33.0376 H   0  0  0  0  0  0  0  0  0  0  0  0
  -24.0509   14.5048  -31.6548 H   0  0  0  0  0  0  0  0  0  0  0  0
  -23.4122   18.6627  -32.4764 H   0  0  0  0  0  0  0  0  0  0  0  0
  -22.5406   14.6392  -29.7156 H   0  0  0  0  0  0  0  0  0  0  0  0
  -22.5447   16.0431  -20.1075 H   0  0  0  0  0  0  0  0  0  0  0  0
  -21.0708   14.0894  -20.1421 H   0  0  0  0  0  0  0  0  0  0  0  0
  -19.9396   22.3207  -25.0590 H   0  0  0  0  0  0  0  0  0  0  0  0
  -16.8997   25.0787  -25.6529 H   0  0  0  0  0  0  0  0  0  0  0  0
  -18.2848   19.4480  -25.9987 H   0  0  0  0  0  0  0  0  0  0  0  0
  -20.6621   20.8529  -27.3995 H   0  0  0  0  0  0  0  0  0  0  0  0
  -21.4471   19.7450  -31.3500 H   0  0  0  0  0  0  0  0  0  0  0  0
  -22.4670   19.8087  -29.9023 H   0  0  0  0  0  0  0  0  0  0  0  0
  -19.6510   18.6184  -30.1471 H   0  0  0  0  0  0  0  0  0  0  0  0
  -20.1332   20.0476  -29.2385 H   0  0  0  0  0  0  0  0  0  0  0  0
  -21.7306   16.4012  -27.9369 H   0  0  0  0  0  0  0  0  0  0  0  0
  -21.9557   13.8914  -25.4135 H   0  0  0  0  0  0  0  0  0  0  0  0
  -20.6629   12.9546  -24.6155 H   0  0  0  0  0  0  0  0  0  0  0  0
  -19.2030   16.4661  -29.6032 H   0  0  0  0  0  0  0  0  0  0  0  0
  -20.2078   15.0171  -29.5263 H   0  0  0  0  0  0  0  0  0  0  0  0
  -18.3686   14.9203  -27.8609 H   0  0  0  0  0  0  0  0  0  0  0  0
  -18.9128   16.4357  -27.1197 H   0  0  0  0  0  0  0  0  0  0  0  0
  -15.6953   23.5288  -26.8730 H   0  0  0  0  0  0  0  0  0  0  0  0
  -22.5918   15.9842  -24.3613 H   0  0  0  0  0  0  0  0  0  0  0  0
  -20.8189   14.1983  -27.2253 H   0  0  0  0  0  0  0  0  0  0  0  0
  1  2  1  0  0  0  0
  1  3  2  0  0  0  0
  2  4  2  0  0  0  0
  3  5  1  0  0  0  0
  4  6  1  0  0  0  0
  5  6  2  0  0  0  0
  5 19  1  0  0  0  0
  6 21  1  0  0  0  0
  7  8  2  0  0  0  0
  7 12  1  0  0  0  0
  8 13  1  0  0  0  0
  9 11  2  0  0  0  0
  9 25  1  0  0  0  0
 10 25  2  0  0  0  0
 10 26  1  0  0  0  0
 11 14  1  0  0  0  0
 11 15  1  0  0  0  0
 12 27  1  0  0  0  0
 12 31  2  0  0  0  0
 13 28  1  0  0  0  0
 13 32  2  0  0  0  0
 14 26  1  0  0  0  0
 14 33  2  0  0  0  0
 15 16  2  0  0  0  0
 16 17  1  0  0  0  0
 17 29  1  0  0  0  0
 17 34  2  0  0  0  0
 18 22  1  0  0  0  0
 18 30  1  0  0  0  0
 18 35  2  0  0  0  0
 19 20  1  0  0  0  0
 20 29  1  0  0  0  0
 21 23  1  0  0  0  0
 21 29  1  0  0  0  0
 22 28  1  0  0  0  0
 23 24  1  0  0  0  0
 24 30  1  0  0  0  0
 27 28  1  0  0  0  0
  1 36  1  0  0  0  0
  2 37  1  0  0  0  0
  3 38  1  0  0  0  0
  4 39  1  0  0  0  0
  7 40  1  0  0  0  0
  8 41  1  0  0  0  0
  9 42  1  0  0  0  0
 10 43  1  0  0  0  0
 15 44  1  0  0  0  0
 16 45  1  0  0  0  0
 19 46  1  0  0  0  0
 19 47  1  0  0  0  0
 20 48  1  0  0  0  0
 20 49  1  0  0  0  0
 21 50  1  0  0  0  0
 22 51  1  0  0  0  0
 22 52  1  0  0  0  0
 23 53  1  0  0  0  0
 23 54  1  0  0  0  0
 24 55  1  0  0  0  0
 24 56  1  0  0  0  0
 26 57  1  0  0  0  0
 27 58  1  0  0  0  0
 30 59  1  0  0  0  0
M  END
> <FRED Chemgauss4 score>
-8.373997

$$$$
4
  -OEChem-08042116223D

 54 56  0     1  0  0  0  0  0999 V2000
  -18.8900   23.1565  -24.7088 C   0  0  0  0  0  0  0  0  0  0  0  0
  -17.8605   22.6215  -25.4831 C   0  0  0  0  0  0  0  0  0  0  0  0
  -20.0356   22.4025  -24.4545 C   0  0  0  0  0  0  0  0  0  0  0  0
  -17.9767   21.3324  -26.0031 C   0  0  0  0  0  0  0  0  0  0  0  0
  -20.1518   21.1134  -24.9746 C   0  0  0  0  0  0  0  0  0  0  0  0
  -19.1223   20.5784  -25.7489 C   0  0  0  0  0  0  0  0  0  0  0  0
  -22.8556   14.6358  -31.1138 C   0  0  0  0  0  0  0  0  0  0  0  0
  -23.1772   13.3478  -30.5641 C   0  0  0  0  0  0  0  0  0  0  0  0
  -21.7975   15.8297  -21.0601 C   0  0  0  0  0  0  0  0  0  0  0  0
  -21.8175   15.3218  -30.6287 C   0  0  0  0  0  0  0  0  0  0  0  0
  -22.4620   13.8600  -20.1862 C   0  0  0  0  0  0  0  0  0  0  0  0
  -20.7574   15.3058  -21.7265 C   0  0  0  0  0  0  0  0  0  0  0  0
  -22.4634   12.8003  -29.5676 C   0  0  0  0  0  0  0  0  0  0  0  0
  -20.5185   13.8427  -21.6186 C   0  0  0  0  0  0  0  0  0  0  0  0
  -21.2878   13.5727  -29.0161 C   0  0  0  0  0  0  0  0  0  0  0  0
  -19.8860   16.1170  -22.5297 C   0  0  0  0  0  0  0  0  0  0  0  0
  -20.3155   16.8328  -23.5768 C   0  0  0  0  0  0  0  0  0  0  0  0
  -19.3540   17.6516  -24.3659 C   0  0  0  0  0  0  0  0  0  0  0  0
  -20.4522   16.7830  -28.3049 C   0  0  0  0  0  0  0  0  0  0  0  0
  -19.9254   15.6447  -29.1408 C   0  0  0  0  0  0  0  0  0  0  0  0
  -19.9036   19.1396  -27.7052 C   0  0  0  0  0  0  0  0  0  0  0  0
  -19.2496   19.1747  -26.3151 C   0  0  2  0  0  0  0  0  0  0  0  0
  -22.6800   15.1308  -20.2724 N   0  0  0  0  0  0  0  0  0  0  0  0
  -21.4358   13.1925  -20.8144 N   0  0  0  0  0  0  0  0  0  0  0  0
  -21.0375   14.8213  -29.6030 N   0  0  0  0  0  0  0  0  0  0  0  0
  -22.7132   11.5852  -29.0009 N   0  0  0  0  0  0  0  0  0  0  0  0
  -19.9889   18.3060  -25.3913 N   0  0  0  0  0  0  0  0  0  0  0  0
  -19.6362   17.9012  -28.4006 N   0  0  0  0  0  0  0  0  0  0  0  0
  -19.5922   13.2792  -22.1933 O   0  0  0  0  0  0  0  0  0  0  0  0
  -20.6201   13.0875  -28.1018 O   0  0  0  0  0  0  0  0  0  0  0  0
  -18.1570   17.7036  -24.1022 O   0  0  0  0  0  0  0  0  0  0  0  0
  -21.4779   16.7101  -27.6333 O   0  0  0  0  0  0  0  0  0  0  0  0
  -18.7988   24.1597  -24.3028 H   0  0  0  0  0  0  0  0  0  0  0  0
  -16.9679   23.2080  -25.6803 H   0  0  0  0  0  0  0  0  0  0  0  0
  -20.8368   22.8183  -23.8508 H   0  0  0  0  0  0  0  0  0  0  0  0
  -17.1696   20.9237  -26.6055 H   0  0  0  0  0  0  0  0  0  0  0  0
  -21.0481   20.5333  -24.7714 H   0  0  0  0  0  0  0  0  0  0  0  0
  -23.4666   15.0287  -31.9178 H   0  0  0  0  0  0  0  0  0  0  0  0
  -24.0294   12.8279  -30.9909 H   0  0  0  0  0  0  0  0  0  0  0  0
  -22.0037   16.8950  -21.1150 H   0  0  0  0  0  0  0  0  0  0  0  0
  -21.5488   16.2961  -31.0214 H   0  0  0  0  0  0  0  0  0  0  0  0
  -23.1061   13.2021  -19.5829 H   0  0  0  0  0  0  0  0  0  0  0  0
  -18.8412   16.1167  -22.2340 H   0  0  0  0  0  0  0  0  0  0  0  0
  -21.3603   16.8319  -23.8718 H   0  0  0  0  0  0  0  0  0  0  0  0
  -19.3870   16.0416  -30.0065 H   0  0  0  0  0  0  0  0  0  0  0  0
  -19.2467   15.0289  -28.5433 H   0  0  0  0  0  0  0  0  0  0  0  0
  -20.9935   19.2171  -27.6201 H   0  0  0  0  0  0  0  0  0  0  0  0
  -19.5627   19.9568  -28.3498 H   0  0  0  0  0  0  0  0  0  0  0  0
  -18.2420   18.7491  -26.4099 H   0  0  0  0  0  0  0  0  0  0  0  0
  -21.3456   12.1890  -20.6855 H   0  0  0  0  0  0  0  0  0  0  0  0
  -23.4816   11.0486  -29.3408 H   0  0  0  0  0  0  0  0  0  0  0  0
  -22.1199   11.2705  -28.2640 H   0  0  0  0  0  0  0  0  0  0  0  0
  -20.9717   18.1948  -25.5703 H   0  0  0  0  0  0  0  0  0  0  0  0
  -18.8097   17.8466  -28.9887 H   0  0  0  0  0  0  0  0  0  0  0  0
  1  2  1  0  0  0  0
  1  3  2  0  0  0  0
  2  4  2  0  0  0  0
  3  5  1  0  0  0  0
  4  6  1  0  0  0  0
  5  6  2  0  0  0  0
  6 22  1  0  0  0  0
  7  8  1  0  0  0  0
  7 10  2  0  0  0  0
  8 13  2  0  0  0  0
  9 12  2  0  0  0  0
  9 23  1  0  0  0  0
 10 25  1  0  0  0  0
 11 23  2  0  0  0  0
 11 24  1  0  0  0  0
 12 14  1  0  0  0  0
 12 16  1  0  0  0  0
 13 15  1  0  0  0  0
 13 26  1  0  0  0  0
 14 24  1  0  0  0  0
 14 29  2  0  0  0  0
 15 25  1  0  0  0  0
 15 30  2  0  0  0  0
 16 17  2  0  0  0  0
 17 18  1  0  0  0  0
 18 27  1  0  0  0  0
 18 31  2  0  0  0  0
 19 20  1  0  0  0  0
 19 28  1  0  0  0  0
 19 32  2  0  0  0  0
 20 25  1  0  0  0  0
 21 22  1  0  0  0  0
 21 28  1  0  0  0  0
 22 27  1  0  0  0  0
  1 33  1  0  0  0  0
  2 34  1  0  0  0  0
  3 35  1  0  0  0  0
  4 36  1  0  0  0  0
  5 37  1  0  0  0  0
  7 38  1  0  0  0  0
  8 39  1  0  0  0  0
  9 40  1  0  0  0  0
 10 41  1  0  0  0  0
 11 42  1  0  0  0  0
 16 43  1  0  0  0  0
 17 44  1  0  0  0  0
 20 45  1  0  0  0  0
 20 46  1  0  0  0  0
 21 47  1  0  0  0  0
 21 48  1  0  0  0  0
 22 49  1  0  0  0  0
 24 50  1  0  0  0  0
 26 51  1  0  0  0  0
 26 52  1  0  0  0  0
 27 53  1  0  0  0  0
 28 54  1  0  0  0  0
M  END
> <FRED Chemgauss4 score>
-10.291347

$$$$
47
  -OEChem-08042116223D

 56 59  0     1  0  0  0  0  0999 V2000
  -25.0398   17.4928  -32.9934 C   0  0  0  0  0  0  0  0  0  0  0  0
  -25.2922   18.6977  -32.3443 C   0  0  0  0  0  0  0  0  0  0  0  0
  -24.1501   16.5730  -32.4377 C   0  0  0  0  0  0  0  0  0  0  0  0
  -24.6559   18.9874  -31.1370 C   0  0  0  0  0  0  0  0  0  0  0  0
  -22.6021   15.9338  -30.6494 C   0  0  0  0  0  0  0  0  0  0  0  0
  -21.9657   16.2235  -29.4422 C   0  0  0  0  0  0  0  0  0  0  0  0
  -23.1078   18.3483  -29.3487 C   0  0  0  0  0  0  0  0  0  0  0  0
  -23.5006   16.8480  -31.2232 C   0  0  0  0  0  0  0  0  0  0  0  0
  -23.7573   18.0733  -30.5632 C   0  0  0  0  0  0  0  0  0  0  0  0
  -22.2181   17.4285  -28.7931 C   0  0  0  0  0  0  0  0  0  0  0  0
  -22.7234   15.3967  -20.1598 C   0  0  0  0  0  0  0  0  0  0  0  0
  -22.3865   14.0008  -20.2104 C   0  0  0  0  0  0  0  0  0  0  0  0
  -17.5199   20.3941  -26.9094 C   0  0  0  0  0  0  0  0  0  0  0  0
  -22.2451   16.2270  -21.0902 C   0  0  0  0  0  0  0  0  0  0  0  0
  -19.1551   21.1944  -28.4489 C   0  0  0  0  0  0  0  0  0  0  0  0
  -18.6478   20.1321  -27.5701 C   0  0  0  0  0  0  0  0  0  0  0  0
  -21.5984   13.4926  -21.1711 C   0  0  0  0  0  0  0  0  0  0  0  0
  -16.8555   21.7053  -27.0901 C   0  0  0  0  0  0  0  0  0  0  0  0
  -21.0554   14.4282  -22.2259 C   0  0  0  0  0  0  0  0  0  0  0  0
  -19.3114   18.8277  -27.3922 C   0  0  0  0  0  0  0  0  0  0  0  0
  -21.7144   16.5999  -24.3705 C   0  0  0  0  0  0  0  0  0  0  0  0
  -20.9550   16.7581  -23.0781 C   0  0  0  0  0  0  0  0  0  0  0  0
  -22.5030   17.9497  -26.3122 C   0  0  0  0  0  0  0  0  0  0  0  0
  -21.5369   17.7364  -27.5023 C   0  0  2  0  0  0  0  0  0  0  0  0
  -18.6104   22.3499  -28.6375 N   0  0  0  0  0  0  0  0  0  0  0  0
  -17.4637   22.5891  -27.9533 N   0  0  0  0  0  0  0  0  0  0  0  0
  -21.4312   15.7675  -22.1017 N   0  0  0  0  0  0  0  0  0  0  0  0
  -21.2400   12.1812  -21.2780 N   0  0  0  0  0  0  0  0  0  0  0  0
  -20.6533   18.9152  -27.6169 N   0  0  0  0  0  0  0  0  0  0  0  0
  -21.8286   17.8089  -25.0481 N   0  0  0  0  0  0  0  0  0  0  0  0
  -15.8159   21.9539  -26.4828 O   0  0  0  0  0  0  0  0  0  0  0  0
  -20.3307   13.9814  -23.1160 O   0  0  0  0  0  0  0  0  0  0  0  0
  -18.6634   17.8342  -27.0816 O   0  0  0  0  0  0  0  0  0  0  0  0
  -22.1666   15.5271  -24.7616 O   0  0  0  0  0  0  0  0  0  0  0  0
  -25.5354   17.2683  -33.9332 H   0  0  0  0  0  0  0  0  0  0  0  0
  -25.9846   19.4134  -32.7778 H   0  0  0  0  0  0  0  0  0  0  0  0
  -23.9685   15.6373  -32.9627 H   0  0  0  0  0  0  0  0  0  0  0  0
  -24.8681   19.9357  -30.6472 H   0  0  0  0  0  0  0  0  0  0  0  0
  -22.3896   14.9857  -31.1396 H   0  0  0  0  0  0  0  0  0  0  0  0
  -21.2739   15.5017  -29.0163 H   0  0  0  0  0  0  0  0  0  0  0  0
  -23.2966   19.2872  -28.8305 H   0  0  0  0  0  0  0  0  0  0  0  0
  -23.3641   15.7516  -19.3613 H   0  0  0  0  0  0  0  0  0  0  0  0
  -22.7990   13.3651  -19.4330 H   0  0  0  0  0  0  0  0  0  0  0  0
  -17.0551   19.6843  -26.2341 H   0  0  0  0  0  0  0  0  0  0  0  0
  -22.4803   17.2854  -21.0801 H   0  0  0  0  0  0  0  0  0  0  0  0
  -20.0886   20.9619  -28.9872 H   0  0  0  0  0  0  0  0  0  0  0  0
  -19.8869   16.6029  -23.2569 H   0  0  0  0  0  0  0  0  0  0  0  0
  -21.1125   17.7632  -22.6760 H   0  0  0  0  0  0  0  0  0  0  0  0
  -22.9353   18.9568  -26.3213 H   0  0  0  0  0  0  0  0  0  0  0  0
  -23.3315   17.2335  -26.3224 H   0  0  0  0  0  0  0  0  0  0  0  0
  -20.8746   16.8953  -27.2219 H   0  0  0  0  0  0  0  0  0  0  0  0
  -17.0582   23.5045  -28.1205 H   0  0  0  0  0  0  0  0  0  0  0  0
  -21.5806   11.5360  -20.5985 H   0  0  0  0  0  0  0  0  0  0  0  0
  -20.6482   11.9074  -22.0322 H   0  0  0  0  0  0  0  0  0  0  0  0
  -21.0499   19.8005  -27.8659 H   0  0  0  0  0  0  0  0  0  0  0  0
  -21.4132   18.6384  -24.6279 H   0  0  0  0  0  0  0  0  0  0  0  0
  1  2  1  0  0  0  0
  1  3  2  0  0  0  0
  2  4  2  0  0  0  0
  3  8  1  0  0  0  0
  4  9  1  0  0  0  0
  5  6  2  0  0  0  0
  5  8  1  0  0  0  0
  6 10  1  0  0  0  0
  7  9  1  0  0  0  0
  7 10  2  0  0  0  0
  8  9  2  0  0  0  0
 10 24  1  0  0  0  0
 11 12  1  0  0  0  0
 11 14  2  0  0  0  0
 12 17  2  0  0  0  0
 13 16  2  0  0  0  0
 13 18  1  0  0  0  0
 14 27  1  0  0  0  0
 15 16  1  0  0  0  0
 15 25  2  0  0  0  0
 16 20  1  0  0  0  0
 17 19  1  0  0  0  0
 17 28  1  0  0  0  0
 18 26  1  0  0  0  0
 18 31  2  0  0  0  0
 19 27  1  0  0  0  0
 19 32  2  0  0  0  0
 20 29  1  0  0  0  0
 20 33  2  0  0  0  0
 21 22  1  0  0  0  0
 21 30  1  0  0  0  0
 21 34  2  0  0  0  0
 22 27  1  0  0  0  0
 23 24  1  0  0  0  0
 23 30  1  0  0  0  0
 24 29  1  0  0  0  0
 25 26  1  0  0  0  0
  1 35  1  0  0  0  0
  2 36  1  0  0  0  0
  3 37  1  0  0  0  0
  4 38  1  0  0  0  0
  5 39  1  0  0  0  0
  6 40  1  0  0  0  0
  7 41  1  0  0  0  0
 11 42  1  0  0  0  0
 12 43  1  0  0  0  0
 13 44  1  0  0  0  0
 14 45  1  0  0  0  0
 15 46  1  0  0  0  0
 22 47  1  0  0  0  0
 22 48  1  0  0  0  0
 23 49  1  0  0  0  0
 23 50  1  0  0  0  0
 24 51  1  0  0  0  0
 26 52  1  0  0  0  0
 28 53  1  0  0  0  0
 28 54  1  0  0  0  0
 29 55  1  0  0  0  0
 30 56  1  0  0  0  0
M  END
> <FRED Chemgauss4 score>
-7.372604

$$$$
14
  -OEChem-08042116223D

 61 64  0     1  0  0  0  0  0999 V2000
  -19.5680   12.8583  -19.5551 C   0  0  0  0  0  0  0  0  0  0  0  0
  -20.8974   13.2000  -19.7852 C   0  0  0  0  0  0  0  0  0  0  0  0
  -18.5708   13.3108  -20.4194 C   0  0  0  0  0  0  0  0  0  0  0  0
  -21.2346   13.9955  -20.8806 C   0  0  0  0  0  0  0  0  0  0  0  0
  -17.9012   14.5768  -22.4073 C   0  0  0  0  0  0  0  0  0  0  0  0
  -18.2383   15.3722  -23.5027 C   0  0  0  0  0  0  0  0  0  0  0  0
  -20.5650   15.2614  -22.8685 C   0  0  0  0  0  0  0  0  0  0  0  0
  -18.8920   14.1124  -21.5269 C   0  0  0  0  0  0  0  0  0  0  0  0
  -20.2438   14.4598  -21.7610 C   0  0  0  0  0  0  0  0  0  0  0  0
  -19.5677   15.7139  -23.7329 C   0  0  0  0  0  0  0  0  0  0  0  0
  -22.8596   14.3180  -29.1603 C   0  0  0  0  0  0  0  0  0  0  0  0
  -20.1625   22.1245  -30.1023 C   0  0  0  0  0  0  0  0  0  0  0  0
  -20.0163   20.7918  -30.1324 C   0  0  0  0  0  0  0  0  0  0  0  0
  -22.9882   15.2996  -28.2575 C   0  0  0  0  0  0  0  0  0  0  0  0
  -23.0068   14.6206  -30.6036 C   0  0  0  0  0  0  0  0  0  0  0  0
  -20.4546   20.0663  -31.3514 C   0  0  0  0  0  0  0  0  0  0  0  0
  -21.0705   22.2604  -32.1714 C   0  0  0  0  0  0  0  0  0  0  0  0
  -23.4124   16.9815  -29.9675 C   0  0  0  0  0  0  0  0  0  0  0  0
  -19.4541   20.0657  -29.0282 C   0  0  0  0  0  0  0  0  0  0  0  0
  -19.9920   20.0715  -27.8019 C   0  0  0  0  0  0  0  0  0  0  0  0
  -19.3536   19.2950  -26.7033 C   0  0  0  0  0  0  0  0  0  0  0  0
  -21.3970   15.2232  -26.3972 C   0  0  0  0  0  0  0  0  0  0  0  0
  -21.6588   23.0090  -33.3322 C   0  0  0  0  0  0  0  0  0  0  0  0
  -22.8483   15.0443  -26.7987 C   0  0  0  0  0  0  0  0  0  0  0  0
  -19.9012   18.0846  -24.6139 C   0  0  0  0  0  0  0  0  0  0  0  0
  -19.9262   16.5647  -24.9044 C   0  0  2  0  0  0  0  0  0  0  0  0
  -20.6880   22.8972  -31.1085 N   0  0  0  0  0  0  0  0  0  0  0  0
  -23.2561   16.5914  -28.6458 N   0  0  0  0  0  0  0  0  0  0  0  0
  -20.9752   20.8931  -32.3301 N   0  0  0  0  0  0  0  0  0  0  0  0
  -23.2758   15.9489  -30.8964 N   0  0  0  0  0  0  0  0  0  0  0  0
  -20.2803   18.8533  -25.7707 N   0  0  0  0  0  0  0  0  0  0  0  0
  -21.2489   16.2061  -25.4574 N   0  0  0  0  0  0  0  0  0  0  0  0
  -22.8919   13.7354  -31.4462 O   0  0  0  0  0  0  0  0  0  0  0  0
  -20.3586   18.8484  -31.4668 O   0  0  0  0  0  0  0  0  0  0  0  0
  -23.6524   18.1437  -30.2967 O   0  0  0  0  0  0  0  0  0  0  0  0
  -18.1450   19.0897  -26.6537 O   0  0  0  0  0  0  0  0  0  0  0  0
  -20.4977   14.5400  -26.8843 O   0  0  0  0  0  0  0  0  0  0  0  0
  -19.3066   12.2388  -18.7023 H   0  0  0  0  0  0  0  0  0  0  0  0
  -21.6732   12.8469  -19.1121 H   0  0  0  0  0  0  0  0  0  0  0  0
  -17.5382   13.0314  -20.2195 H   0  0  0  0  0  0  0  0  0  0  0  0
  -22.2803   14.2499  -21.0412 H   0  0  0  0  0  0  0  0  0  0  0  0
  -16.8555   14.3218  -22.2468 H   0  0  0  0  0  0  0  0  0  0  0  0
  -17.4554   15.7203  -24.1713 H   0  0  0  0  0  0  0  0  0  0  0  0
  -21.6011   15.5362  -23.0598 H   0  0  0  0  0  0  0  0  0  0  0  0
  -22.6481   13.2935  -28.8758 H   0  0  0  0  0  0  0  0  0  0  0  0
  -19.8534   22.6904  -29.2277 H   0  0  0  0  0  0  0  0  0  0  0  0
  -18.5525   19.5022  -29.2486 H   0  0  0  0  0  0  0  0  0  0  0  0
  -20.8932   20.6357  -27.5825 H   0  0  0  0  0  0  0  0  0  0  0  0
  -20.8642   23.2999  -34.0148 H   0  0  0  0  0  0  0  0  0  0  0  0
  -22.1715   23.8964  -32.9683 H   0  0  0  0  0  0  0  0  0  0  0  0
  -22.3711   22.3712  -33.8502 H   0  0  0  0  0  0  0  0  0  0  0  0
  -23.1382   14.0155  -26.5625 H   0  0  0  0  0  0  0  0  0  0  0  0
  -23.5095   15.7169  -26.2448 H   0  0  0  0  0  0  0  0  0  0  0  0
  -20.6068   18.3533  -23.8195 H   0  0  0  0  0  0  0  0  0  0  0  0
  -18.9080   18.4273  -24.3047 H   0  0  0  0  0  0  0  0  0  0  0  0
  -19.2044   16.3902  -25.7251 H   0  0  0  0  0  0  0  0  0  0  0  0
  -23.3453   17.2995  -27.9228 H   0  0  0  0  0  0  0  0  0  0  0  0
  -21.2954   20.4634  -33.1932 H   0  0  0  0  0  0  0  0  0  0  0  0
  -23.3833   16.1928  -31.8768 H   0  0  0  0  0  0  0  0  0  0  0  0
  -21.2625   19.0985  -25.8786 H   0  0  0  0  0  0  0  0  0  0  0  0
  -22.0596   16.6966  -25.1350 H   0  0  0  0  0  0  0  0  0  0  0  0
  1  2  1  0  0  0  0
  1  3  2  0  0  0  0
  2  4  2  0  0  0  0
  3  8  1  0  0  0  0
  4  9  1  0  0  0  0
  5  6  2  0  0  0  0
  5  8  1  0  0  0  0
  6 10  1  0  0  0  0
  7  9  1  0  0  0  0
  7 10  2  0  0  0  0
  8  9  2  0  0  0  0
 10 26  1  0  0  0  0
 11 14  2  0  0  0  0
 11 15  1  0  0  0  0
 12 13  2  0  0  0  0
 12 27  1  0  0  0  0
 13 16  1  0  0  0  0
 13 19  1  0  0  0  0
 14 24  1  0  0  0  0
 14 28  1  0  0  0  0
 15 30  1  0  0  0  0
 15 33  2  0  0  0  0
 16 29  1  0  0  0  0
 16 34  2  0  0  0  0
 17 23  1  0  0  0  0
 17 27  2  0  0  0  0
 17 29  1  0  0  0  0
 18 28  1  0  0  0  0
 18 30  1  0  0  0  0
 18 35  2  0  0  0  0
 19 20  2  0  0  0  0
 20 21  1  0  0  0  0
 21 31  1  0  0  0  0
 21 36  2  0  0  0  0
 22 24  1  0  0  0  0
 22 32  1  0  0  0  0
 22 37  2  0  0  0  0
 25 26  1  0  0  0  0
 25 31  1  0  0  0  0
 26 32  1  0  0  0  0
  1 38  1  0  0  0  0
  2 39  1  0  0  0  0
  3 40  1  0  0  0  0
  4 41  1  0  0  0  0
  5 42  1  0  0  0  0
  6 43  1  0  0  0  0
  7 44  1  0  0  0  0
 11 45  1  0  0  0  0
 12 46  1  0  0  0  0
 19 47  1  0  0  0  0
 20 48  1  0  0  0  0
 23 49  1  0  0  0  0
 23 50  1  0  0  0  0
 23 51  1  0  0  0  0
 24 52  1  0  0  0  0
 24 53  1  0  0  0  0
 25 54  1  0  0  0  0
 25 55  1  0  0  0  0
 26 56  1  0  0  0  0
 28 57  1  0  0  0  0
 29 58  1  0  0  0  0
 30 59  1  0  0  0  0
 31 60  1  0  0  0  0
 32 61  1  0  0  0  0
M  END
> <FRED Chemgauss4 score>
3.843875

$$$$
1
  -OEChem-08042116223D

 60 63  0     1  0  0  0  0  0999 V2000
  -17.8836   23.9216  -24.8320 C   0  0  0  0  0  0  0  0  0  0  0  0
  -18.9590   23.5235  -24.0435 C   0  0  0  0  0  0  0  0  0  0  0  0
  -17.6780   23.3347  -26.0809 C   0  0  0  0  0  0  0  0  0  0  0  0
  -19.8330   22.5368  -24.5008 C   0  0  0  0  0  0  0  0  0  0  0  0
  -18.3560   21.7385  -27.8116 C   0  0  0  0  0  0  0  0  0  0  0  0
  -19.2299   20.7519  -28.2689 C   0  0  0  0  0  0  0  0  0  0  0  0
  -20.5110   20.9406  -26.2315 C   0  0  0  0  0  0  0  0  0  0  0  0
  -18.5477   22.3401  -26.5572 C   0  0  0  0  0  0  0  0  0  0  0  0
  -19.6413   21.9352  -25.7553 C   0  0  0  0  0  0  0  0  0  0  0  0
  -20.3054   20.3537  -27.4804 C   0  0  0  0  0  0  0  0  0  0  0  0
  -20.3552   13.3047  -23.3575 C   0  0  0  0  0  0  0  0  0  0  0  0
  -25.1978   18.4747  -32.2771 C   0  0  0  0  0  0  0  0  0  0  0  0
  -24.4912   16.7404  -33.5295 C   0  0  0  0  0  0  0  0  0  0  0  0
  -21.4357   14.0915  -23.4666 C   0  0  0  0  0  0  0  0  0  0  0  0
  -23.9891   18.7497  -31.7598 C   0  0  0  0  0  0  0  0  0  0  0  0
  -22.3010   14.2627  -22.2723 C   0  0  0  0  0  0  0  0  0  0  0  0
  -22.8468   17.8913  -32.1886 C   0  0  0  0  0  0  0  0  0  0  0  0
  -20.7229   12.7810  -21.1863 C   0  0  0  0  0  0  0  0  0  0  0  0
  -21.7661   14.7597  -24.6941 C   0  0  0  0  0  0  0  0  0  0  0  0
  -20.9506   15.6407  -25.2874 C   0  0  0  0  0  0  0  0  0  0  0  0
  -21.3596   16.2967  -26.5602 C   0  0  0  0  0  0  0  0  0  0  0  0
  -23.2044   19.2591  -29.4963 C   0  0  0  0  0  0  0  0  0  0  0  0
  -20.3869   12.0881  -19.8975 C   0  0  0  0  0  0  0  0  0  0  0  0
  -23.7227   19.8489  -30.7936 C   0  0  0  0  0  0  0  0  0  0  0  0
  -20.5641   17.9322  -28.2402 C   0  0  0  0  0  0  0  0  0  0  0  0
  -21.2388   19.2988  -27.9711 C   0  0  2  0  0  0  0  0  0  0  0  0
  -25.4917   17.4737  -33.1693 N   0  0  0  0  0  0  0  0  0  0  0  0
  -19.9646   12.6299  -22.2273 N   0  0  0  0  0  0  0  0  0  0  0  0
  -23.1997   16.9012  -33.0861 N   0  0  0  0  0  0  0  0  0  0  0  0
  -21.8608   13.5611  -21.1650 N   0  0  0  0  0  0  0  0  0  0  0  0
  -20.3936   17.1755  -27.0273 N   0  0  0  0  0  0  0  0  0  0  0  0
  -21.9552   19.7258  -29.1910 N   0  0  0  0  0  0  0  0  0  0  0  0
  -23.3086   14.9632  -22.2805 O   0  0  0  0  0  0  0  0  0  0  0  0
  -21.7078   18.0685  -31.7682 O   0  0  0  0  0  0  0  0  0  0  0  0
  -22.4344   16.0691  -27.1063 O   0  0  0  0  0  0  0  0  0  0  0  0
  -23.8666   18.4630  -28.8327 O   0  0  0  0  0  0  0  0  0  0  0  0
  -17.2037   24.6894  -24.4751 H   0  0  0  0  0  0  0  0  0  0  0  0
  -19.1181   23.9805  -23.0712 H   0  0  0  0  0  0  0  0  0  0  0  0
  -16.8308   23.6620  -26.6802 H   0  0  0  0  0  0  0  0  0  0  0  0
  -20.6669   22.2410  -23.8674 H   0  0  0  0  0  0  0  0  0  0  0  0
  -17.5217   22.0341  -28.4448 H   0  0  0  0  0  0  0  0  0  0  0  0
  -19.0624   20.2996  -29.2429 H   0  0  0  0  0  0  0  0  0  0  0  0
  -21.3564   20.6201  -25.6247 H   0  0  0  0  0  0  0  0  0  0  0  0
  -19.6978   13.1549  -24.2096 H   0  0  0  0  0  0  0  0  0  0  0  0
  -26.0535   19.0778  -31.9881 H   0  0  0  0  0  0  0  0  0  0  0  0
  -24.6097   15.9088  -34.2405 H   0  0  0  0  0  0  0  0  0  0  0  0
  -22.7316   14.5051  -25.1209 H   0  0  0  0  0  0  0  0  0  0  0  0
  -19.9857   15.8949  -24.8596 H   0  0  0  0  0  0  0  0  0  0  0  0
  -19.7473   12.7307  -19.2976 H   0  0  0  0  0  0  0  0  0  0  0  0
  -19.8705   11.1554  -20.1118 H   0  0  0  0  0  0  0  0  0  0  0  0
  -21.3033   11.8729  -19.3530 H   0  0  0  0  0  0  0  0  0  0  0  0
  -24.6464   20.3923  -30.5706 H   0  0  0  0  0  0  0  0  0  0  0  0
  -23.0123   20.5562  -31.2313 H   0  0  0  0  0  0  0  0  0  0  0  0
  -21.1692   17.3105  -28.9098 H   0  0  0  0  0  0  0  0  0  0  0  0
  -19.5751   18.0454  -28.6968 H   0  0  0  0  0  0  0  0  0  0  0  0
  -22.0251   19.1169  -27.2138 H   0  0  0  0  0  0  0  0  0  0  0  0
  -22.4778   16.2733  -33.4272 H   0  0  0  0  0  0  0  0  0  0  0  0
  -22.4057   13.6326  -20.3106 H   0  0  0  0  0  0  0  0  0  0  0  0
  -19.5421   17.3234  -26.4893 H   0  0  0  0  0  0  0  0  0  0  0  0
  -21.5138   20.3751  -29.8118 H   0  0  0  0  0  0  0  0  0  0  0  0
  1  2  1  0  0  0  0
  1  3  2  0  0  0  0
  2  4  2  0  0  0  0
  3  8  1  0  0  0  0
  4  9  1  0  0  0  0
  5  6  2  0  0  0  0
  5  8  1  0  0  0  0
  6 10  1  0  0  0  0
  7  9  1  0  0  0  0
  7 10  2  0  0  0  0
  8  9  2  0  0  0  0
 10 26  1  0  0  0  0
 11 14  2  0  0  0  0
 11 28  1  0  0  0  0
 12 15  2  0  0  0  0
 12 27  1  0  0  0  0
 13 27  2  0  0  0  0
 13 29  1  0  0  0  0
 14 16  1  0  0  0  0
 14 19  1  0  0  0  0
 15 17  1  0  0  0  0
 15 24  1  0  0  0  0
 16 30  1  0  0  0  0
 16 33  2  0  0  0  0
 17 29  1  0  0  0  0
 17 34  2  0  0  0  0
 18 23  1  0  0  0  0
 18 28  2  0  0  0  0
 18 30  1  0  0  0  0
 19 20  2  0  0  0  0
 20 21  1  0  0  0  0
 21 31  1  0  0  0  0
 21 35  2  0  0  0  0
 22 24  1  0  0  0  0
 22 32  1  0  0  0  0
 22 36  2  0  0  0  0
 25 26  1  0  0  0  0
 25 31  1  0  0  0  0
 26 32  1  0  0  0  0
  1 37  1  0  0  0  0
  2 38  1  0  0  0  0
  3 39  1  0  0  0  0
  4 40  1  0  0  0  0
  5 41  1  0  0  0  0
  6 42  1  0  0  0  0
  7 43  1  0  0  0  0
 11 44  1  0  0  0  0
 12 45  1  0  0  0  0
 13 46  1  0  0  0  0
 19 47  1  0  0  0  0
 20 48  1  0  0  0  0
 23 49  1  0  0  0  0
 23 50  1  0  0  0  0
 23 51  1  0  0  0  0
 24 52  1  0  0  0  0
 24 53  1  0  0  0  0
 25 54  1  0  0  0  0
 25 55  1  0  0  0  0
 26 56  1  0  0  0  0
 29 57  1  0  0  0  0
 30 58  1  0  0  0  0
 31 59  1  0  0  0  0
 32 60  1  0  0  0  0
M  END
> <FRED Chemgauss4 score>
0.094311

$$$$
13
  -OEChem-08042116223D

 53 56  0     1  0  0  0  0  0999 V2000
  -21.9923   14.8692  -30.9021 C   0  0  0  0  0  0  0  0  0  0  0  0
  -21.7893   13.9675  -29.8465 C   0  0  0  0  0  0  0  0  0  0  0  0
  -22.4476   16.1647  -30.6519 C   0  0  0  0  0  0  0  0  0  0  0  0
  -22.0368   14.3492  -28.5257 C   0  0  0  0  0  0  0  0  0  0  0  0
  -22.6782   16.5386  -29.3380 C   0  0  0  0  0  0  0  0  0  0  0  0
  -22.4716   15.6429  -28.2804 C   0  0  0  0  0  0  0  0  0  0  0  0
  -17.3810   21.3920  -26.6983 C   0  0  0  0  0  0  0  0  0  0  0  0
  -15.8667   22.7670  -25.7491 C   0  0  0  0  0  0  0  0  0  0  0  0
  -18.4329   21.9439  -26.0743 C   0  0  0  0  0  0  0  0  0  0  0  0
  -21.7493   15.6685  -22.1992 C   0  0  0  0  0  0  0  0  0  0  0  0
  -21.8864   14.7475  -21.2389 C   0  0  0  0  0  0  0  0  0  0  0  0
  -18.1838   23.0774  -25.1457 C   0  0  0  0  0  0  0  0  0  0  0  0
  -22.2252   16.9344  -21.5779 C   0  0  0  0  0  0  0  0  0  0  0  0
  -19.7722   21.4700  -26.2838 C   0  0  0  0  0  0  0  0  0  0  0  0
  -20.0565   20.1968  -26.5861 C   0  0  0  0  0  0  0  0  0  0  0  0
  -21.4702   19.7760  -26.7907 C   0  0  0  0  0  0  0  0  0  0  0  0
  -22.3538   15.9896  -24.5509 C   0  0  0  0  0  0  0  0  0  0  0  0
  -23.2040   17.8500  -28.8415 C   0  0  0  0  0  0  0  0  0  0  0  0
  -22.8463   16.2775  -26.9706 C   0  0  2  0  0  0  0  0  0  0  0  0
  -22.8508   17.7829  -27.3428 C   0  0  1  0  0  0  0  0  0  0  0  0
  -21.5480   13.3014  -21.2710 C   0  0  0  0  0  0  0  0  0  0  0  0
  -21.2424   15.5993  -23.5960 C   0  0  0  0  0  0  0  0  0  0  0  0
  -16.0707   21.7809  -26.5590 N   0  0  0  0  0  0  0  0  0  0  0  0
  -16.8494   23.4244  -25.0453 N   0  0  0  0  0  0  0  0  0  0  0  0
  -22.4028   15.3137  -20.1184 N   0  0  0  0  0  0  0  0  0  0  0  0
  -21.5758   18.4256  -27.0957 N   0  0  0  0  0  0  0  0  0  0  0  0
  -21.9649   15.9520  -25.8835 N   0  0  0  0  0  0  0  0  0  0  0  0
  -19.0851   23.6417  -24.5333 O   0  0  0  0  0  0  0  0  0  0  0  0
  -22.2666   18.0247  -22.1206 O   0  0  0  0  0  0  0  0  0  0  0  0
  -22.4128   20.5558  -26.6980 O   0  0  0  0  0  0  0  0  0  0  0  0
  -23.4754   16.2997  -24.1526 O   0  0  0  0  0  0  0  0  0  0  0  0
  -22.6040   16.6648  -20.2847 O   0  0  0  0  0  0  0  0  0  0  0  0
  -21.7890   14.5562  -31.9223 H   0  0  0  0  0  0  0  0  0  0  0  0
  -21.4312   12.9638  -30.0590 H   0  0  0  0  0  0  0  0  0  0  0  0
  -22.6148   16.8577  -31.4696 H   0  0  0  0  0  0  0  0  0  0  0  0
  -21.8882   13.6447  -27.7128 H   0  0  0  0  0  0  0  0  0  0  0  0
  -17.5240   20.5617  -27.3845 H   0  0  0  0  0  0  0  0  0  0  0  0
  -14.8566   23.1618  -25.5611 H   0  0  0  0  0  0  0  0  0  0  0  0
  -20.5546   22.2160  -26.1813 H   0  0  0  0  0  0  0  0  0  0  0  0
  -19.2735   19.4518  -26.6889 H   0  0  0  0  0  0  0  0  0  0  0  0
  -22.6841   18.6723  -29.3524 H   0  0  0  0  0  0  0  0  0  0  0  0
  -24.2866   17.9468  -28.9930 H   0  0  0  0  0  0  0  0  0  0  0  0
  -23.8768   15.9738  -26.6603 H   0  0  0  0  0  0  0  0  0  0  0  0
  -23.5853   18.3032  -26.7652 H   0  0  0  0  0  0  0  0  0  0  0  0
  -20.5183   13.1475  -20.9399 H   0  0  0  0  0  0  0  0  0  0  0  0
  -21.6548   12.9108  -22.2861 H   0  0  0  0  0  0  0  0  0  0  0  0
  -22.2181   12.7423  -20.6134 H   0  0  0  0  0  0  0  0  0  0  0  0
  -20.9337   14.5776  -23.8390 H   0  0  0  0  0  0  0  0  0  0  0  0
  -20.3691   16.2496  -23.7006 H   0  0  0  0  0  0  0  0  0  0  0  0
  -16.5902   24.1903  -24.4306 H   0  0  0  0  0  0  0  0  0  0  0  0
  -22.4904   14.8666  -19.2178 H   0  0  0  0  0  0  0  0  0  0  0  0
  -20.7307   17.8619  -27.1809 H   0  0  0  0  0  0  0  0  0  0  0  0
  -21.0081   15.6803  -26.1009 H   0  0  0  0  0  0  0  0  0  0  0  0
  1  2  1  0  0  0  0
  1  3  2  0  0  0  0
  2  4  2  0  0  0  0
  3  5  1  0  0  0  0
  4  6  1  0  0  0  0
  5  6  2  0  0  0  0
  5 18  1  0  0  0  0
  6 19  1  0  0  0  0
  7  9  2  0  0  0  0
  7 23  1  0  0  0  0
  8 23  2  0  0  0  0
  8 24  1  0  0  0  0
  9 12  1  0  0  0  0
  9 14  1  0  0  0  0
 10 11  2  0  0  0  0
 10 13  1  0  0  0  0
 10 22  1  0  0  0  0
 11 21  1  0  0  0  0
 11 25  1  0  0  0  0
 12 24  1  0  0  0  0
 12 28  2  0  0  0  0
 13 29  2  0  0  0  0
 13 32  1  0  0  0  0
 14 15  2  0  0  0  0
 15 16  1  0  0  0  0
 16 26  1  0  0  0  0
 16 30  2  0  0  0  0
 17 22  1  0  0  0  0
 17 27  1  0  0  0  0
 17 31  2  0  0  0  0
 18 20  1  0  0  0  0
 19 20  1  0  0  0  0
 19 27  1  0  0  0  0
 20 26  1  0  0  0  0
 25 32  1  0  0  0  0
  1 33  1  0  0  0  0
  2 34  1  0  0  0  0
  3 35  1  0  0  0  0
  4 36  1  0  0  0  0
  7 37  1  0  0  0  0
  8 38  1  0  0  0  0
 14 39  1  0  0  0  0
 15 40  1  0  0  0  0
 18 41  1  0  0  0  0
 18 42  1  0  0  0  0
 19 43  1  0  0  0  0
 20 44  1  0  0  0  0
 21 45  1  0  0  0  0
 21 46  1  0  0  0  0
 21 47  1  0  0  0  0
 22 48  1  0  0  0  0
 22 49  1  0  0  0  0
 24 50  1  0  0  0  0
 25 51  1  0  0  0  0
 26 52  1  0  0  0  0
 27 53  1  0  0  0  0
M  END
> <FRED Chemgauss4 score>
-9.427532

$$$$
42
  -OEChem-08042116223D

 60 63  0     1  0  0  0  0  0999 V2000
  -21.1924   13.3988  -19.4579 C   0  0  0  0  0  0  0  0  0  0  0  0
  -19.8699   13.2675  -19.8709 C   0  0  0  0  0  0  0  0  0  0  0  0
  -22.1571   13.8769  -20.3452 C   0  0  0  0  0  0  0  0  0  0  0  0
  -19.5070   13.6137  -21.1728 C   0  0  0  0  0  0  0  0  0  0  0  0
  -22.7675   14.7130  -22.5657 C   0  0  0  0  0  0  0  0  0  0  0  0
  -22.4046   15.0593  -23.8676 C   0  0  0  0  0  0  0  0  0  0  0  0
  -20.1174   14.4499  -23.3933 C   0  0  0  0  0  0  0  0  0  0  0  0
  -21.8097   14.2302  -21.6593 C   0  0  0  0  0  0  0  0  0  0  0  0
  -20.4648   14.0966  -22.0793 C   0  0  0  0  0  0  0  0  0  0  0  0
  -21.0821   14.9280  -24.2806 C   0  0  0  0  0  0  0  0  0  0  0  0
  -17.0196   20.7049  -26.3480 C   0  0  0  0  0  0  0  0  0  0  0  0
  -22.7312   16.0900  -31.0185 C   0  0  0  0  0  0  0  0  0  0  0  0
  -16.1344   22.7219  -25.8646 C   0  0  0  0  0  0  0  0  0  0  0  0
  -18.1955   20.9587  -25.7536 C   0  0  0  0  0  0  0  0  0  0  0  0
  -21.5859   15.8162  -30.3740 C   0  0  0  0  0  0  0  0  0  0  0  0
  -18.3876   22.2866  -25.1141 C   0  0  0  0  0  0  0  0  0  0  0  0
  -20.8102   16.9695  -29.8367 C   0  0  0  0  0  0  0  0  0  0  0  0
  -22.5840   18.3321  -30.7633 C   0  0  0  0  0  0  0  0  0  0  0  0
  -19.2546   19.9893  -25.7249 C   0  0  0  0  0  0  0  0  0  0  0  0
  -19.0346   18.6684  -25.7223 C   0  0  0  0  0  0  0  0  0  0  0  0
  -20.1827   17.7206  -25.6927 C   0  0  0  0  0  0  0  0  0  0  0  0
  -21.2369   14.0493  -28.7141 C   0  0  0  0  0  0  0  0  0  0  0  0
  -23.0755   19.7390  -30.9445 C   0  0  0  0  0  0  0  0  0  0  0  0
  -21.0497   14.4443  -30.1661 C   0  0  0  0  0  0  0  0  0  0  0  0
  -20.1072   14.1295  -26.4986 C   0  0  0  0  0  0  0  0  0  0  0  0
  -20.6961   15.2985  -25.6729 C   0  0  2  0  0  0  0  0  0  0  0  0
  -15.9556   21.5708  -26.4242 N   0  0  0  0  0  0  0  0  0  0  0  0
  -23.2650   17.3351  -31.2348 N   0  0  0  0  0  0  0  0  0  0  0  0
  -17.2858   23.1146  -25.2216 N   0  0  0  0  0  0  0  0  0  0  0  0
  -21.3928   18.1990  -30.0820 N   0  0  0  0  0  0  0  0  0  0  0  0
  -19.7418   16.4266  -25.6949 N   0  0  0  0  0  0  0  0  0  0  0  0
  -20.1585   14.3981  -27.9121 N   0  0  0  0  0  0  0  0  0  0  0  0
  -19.4292   22.6044  -24.5485 O   0  0  0  0  0  0  0  0  0  0  0  0
  -19.7522   16.8158  -29.2342 O   0  0  0  0  0  0  0  0  0  0  0  0
  -21.3505   18.0961  -25.6735 O   0  0  0  0  0  0  0  0  0  0  0  0
  -22.2542   13.4817  -28.3197 O   0  0  0  0  0  0  0  0  0  0  0  0
  -21.4739   13.1293  -18.4443 H   0  0  0  0  0  0  0  0  0  0  0  0
  -19.1194   12.8957  -19.1794 H   0  0  0  0  0  0  0  0  0  0  0  0
  -23.1849   13.9709  -20.0004 H   0  0  0  0  0  0  0  0  0  0  0  0
  -18.4671   13.5032  -21.4738 H   0  0  0  0  0  0  0  0  0  0  0  0
  -23.8073   14.8240  -22.2644 H   0  0  0  0  0  0  0  0  0  0  0  0
  -23.1622   15.4312  -24.5523 H   0  0  0  0  0  0  0  0  0  0  0  0
  -19.0863   14.3517  -23.7293 H   0  0  0  0  0  0  0  0  0  0  0  0
  -16.8424   19.7455  -26.8261 H   0  0  0  0  0  0  0  0  0  0  0  0
  -23.3244   15.2759  -31.4245 H   0  0  0  0  0  0  0  0  0  0  0  0
  -15.3496   23.4935  -25.8650 H   0  0  0  0  0  0  0  0  0  0  0  0
  -20.2613   20.3959  -25.7051 H   0  0  0  0  0  0  0  0  0  0  0  0
  -18.0277   18.2630  -25.7426 H   0  0  0  0  0  0  0  0  0  0  0  0
  -23.7090   20.0117  -30.1041 H   0  0  0  0  0  0  0  0  0  0  0  0
  -23.6444   19.8076  -31.8688 H   0  0  0  0  0  0  0  0  0  0  0  0
  -22.2254   20.4152  -30.9964 H   0  0  0  0  0  0  0  0  0  0  0  0
  -19.9778   14.4168  -30.3866 H   0  0  0  0  0  0  0  0  0  0  0  0
  -21.5518   13.7488  -30.8449 H   0  0  0  0  0  0  0  0  0  0  0  0
  -19.0527   13.9569  -26.2549 H   0  0  0  0  0  0  0  0  0  0  0  0
  -20.6453   13.1916  -26.3242 H   0  0  0  0  0  0  0  0  0  0  0  0
  -21.5879   15.6536  -26.2237 H   0  0  0  0  0  0  0  0  0  0  0  0
  -17.3317   24.0424  -24.8110 H   0  0  0  0  0  0  0  0  0  0  0  0
  -20.9252   19.0365  -29.7475 H   0  0  0  0  0  0  0  0  0  0  0  0
  -18.7729   16.1802  -25.7421 H   0  0  0  0  0  0  0  0  0  0  0  0
  -19.3651   14.8667  -28.3447 H   0  0  0  0  0  0  0  0  0  0  0  0
  1  2  1  0  0  0  0
  1  3  2  0  0  0  0
  2  4  2  0  0  0  0
  3  8  1  0  0  0  0
  4  9  1  0  0  0  0
  5  6  2  0  0  0  0
  5  8  1  0  0  0  0
  6 10  1  0  0  0  0
  7  9  1  0  0  0  0
  7 10  2  0  0  0  0
  8  9  2  0  0  0  0
 10 26  1  0  0  0  0
 11 14  2  0  0  0  0
 11 27  1  0  0  0  0
 12 15  2  0  0  0  0
 12 28  1  0  0  0  0
 13 27  2  0  0  0  0
 13 29  1  0  0  0  0
 14 16  1  0  0  0  0
 14 19  1  0  0  0  0
 15 17  1  0  0  0  0
 15 24  1  0  0  0  0
 16 29  1  0  0  0  0
 16 33  2  0  0  0  0
 17 30  1  0  0  0  0
 17 34  2  0  0  0  0
 18 23  1  0  0  0  0
 18 28  2  0  0  0  0
 18 30  1  0  0  0  0
 19 20  2  0  0  0  0
 20 21  1  0  0  0  0
 21 31  1  0  0  0  0
 21 35  2  0  0  0  0
 22 24  1  0  0  0  0
 22 32  1  0  0  0  0
 22 36  2  0  0  0  0
 25 26  1  0  0  0  0
 25 32  1  0  0  0  0
 26 31  1  0  0  0  0
  1 37  1  0  0  0  0
  2 38  1  0  0  0  0
  3 39  1  0  0  0  0
  4 40  1  0  0  0  0
  5 41  1  0  0  0  0
  6 42  1  0  0  0  0
  7 43  1  0  0  0  0
 11 44  1  0  0  0  0
 12 45  1  0  0  0  0
 13 46  1  0  0  0  0
 19 47  1  0  0  0  0
 20 48  1  0  0  0  0
 23 49  1  0  0  0  0
 23 50  1  0  0  0  0
 23 51  1  0  0  0  0
 24 52  1  0  0  0  0
 24 53  1  0  0  0  0
 25 54  1  0  0  0  0
 25 55  1  0  0  0  0
 26 56  1  0  0  0  0
 29 57  1  0  0  0  0
 30 58  1  0  0  0  0
 31 59  1  0  0  0  0
 32 60  1  0  0  0  0
M  END
> <FRED Chemgauss4 score>
-6.400805

$$$$
65
  -OEChem-08042116223D

 49 51  0     1  0  0  0  0  0999 V2000
  -20.1045   20.8321  -32.6992 C   0  0  0  0  0  0  0  0  0  0  0  0
  -21.4689   21.1145  -32.6352 C   0  0  0  0  0  0  0  0  0  0  0  0
  -19.5396   19.9153  -31.8125 C   0  0  0  0  0  0  0  0  0  0  0  0
  -22.2686   20.4801  -31.6846 C   0  0  0  0  0  0  0  0  0  0  0  0
  -20.3393   19.2809  -30.8619 C   0  0  0  0  0  0  0  0  0  0  0  0
  -21.7038   19.5633  -30.7979 C   0  0  0  0  0  0  0  0  0  0  0  0
  -17.0868   23.2042  -25.4389 C   0  0  0  0  0  0  0  0  0  0  0  0
  -16.5404   22.3639  -26.3168 C   0  0  0  0  0  0  0  0  0  0  0  0
  -20.6286   15.1654  -29.1908 C   0  0  0  0  0  0  0  0  0  0  0  0
  -22.5997   14.0441  -30.0633 C   0  0  0  0  0  0  0  0  0  0  0  0
  -20.0992   13.9978  -28.8080 C   0  0  0  0  0  0  0  0  0  0  0  0
  -21.9185   15.1769  -29.8370 C   0  0  0  0  0  0  0  0  0  0  0  0
  -18.4457   22.9760  -24.9127 C   0  0  0  0  0  0  0  0  0  0  0  0
  -17.2681   21.1704  -26.7994 C   0  0  0  0  0  0  0  0  0  0  0  0
  -22.0075   12.7399  -29.6352 C   0  0  0  0  0  0  0  0  0  0  0  0
  -22.5323   16.4447  -30.2726 C   0  0  0  0  0  0  0  0  0  0  0  0
  -20.3686   20.2733  -27.6885 C   0  0  0  0  0  0  0  0  0  0  0  0
  -19.3013   19.8354  -26.7183 C   0  0  0  0  0  0  0  0  0  0  0  0
  -22.6616   19.6415  -28.4348 C   0  0  0  0  0  0  0  0  0  0  0  0
  -22.5739   18.8724  -29.7623 C   0  0  2  0  0  0  0  0  0  0  0  0
  -20.7664   12.8175  -29.0223 N   0  0  0  0  0  0  0  0  0  0  0  0
  -19.0982   21.8630  -25.3773 N   0  0  0  0  0  0  0  0  0  0  0  0
  -18.5333   20.9874  -26.2877 N   0  0  0  0  0  0  0  0  0  0  0  0
  -22.1045   17.5032  -29.5181 N   0  0  0  0  0  0  0  0  0  0  0  0
  -21.4847   19.4519  -27.6178 N   0  0  0  0  0  0  0  0  0  0  0  0
  -18.9312   23.7637  -24.1036 O   0  0  0  0  0  0  0  0  0  0  0  0
  -16.7186   20.4255  -27.6095 O   0  0  0  0  0  0  0  0  0  0  0  0
  -22.6137   11.6898  -29.8323 O   0  0  0  0  0  0  0  0  0  0  0  0
  -23.3224   16.4666  -31.2100 O   0  0  0  0  0  0  0  0  0  0  0  0
  -20.2467   21.2397  -28.4365 O   0  0  0  0  0  0  0  0  0  0  0  0
  -19.4822   21.3251  -33.4404 H   0  0  0  0  0  0  0  0  0  0  0  0
  -21.9091   21.8275  -33.3262 H   0  0  0  0  0  0  0  0  0  0  0  0
  -18.4776   19.6944  -31.8628 H   0  0  0  0  0  0  0  0  0  0  0  0
  -23.3307   20.7064  -31.6419 H   0  0  0  0  0  0  0  0  0  0  0  0
  -19.8905   18.5682  -30.1751 H   0  0  0  0  0  0  0  0  0  0  0  0
  -16.5470   24.0769  -25.0896 H   0  0  0  0  0  0  0  0  0  0  0  0
  -15.5412   22.5347  -26.7020 H   0  0  0  0  0  0  0  0  0  0  0  0
  -20.1031   16.0984  -29.0224 H   0  0  0  0  0  0  0  0  0  0  0  0
  -23.5702   14.0182  -30.5458 H   0  0  0  0  0  0  0  0  0  0  0  0
  -19.1366   13.9210  -28.3188 H   0  0  0  0  0  0  0  0  0  0  0  0
  -19.7662   19.3660  -25.8463 H   0  0  0  0  0  0  0  0  0  0  0  0
  -18.6320   19.1180  -27.2021 H   0  0  0  0  0  0  0  0  0  0  0  0
  -22.7399   20.7191  -28.6186 H   0  0  0  0  0  0  0  0  0  0  0  0
  -23.5280   19.3441  -27.8344 H   0  0  0  0  0  0  0  0  0  0  0  0
  -23.5909   18.7893  -30.1673 H   0  0  0  0  0  0  0  0  0  0  0  0
  -20.3180   11.9606  -28.7115 H   0  0  0  0  0  0  0  0  0  0  0  0
  -20.0368   21.6436  -25.0586 H   0  0  0  0  0  0  0  0  0  0  0  0
  -21.4485   17.3380  -28.7737 H   0  0  0  0  0  0  0  0  0  0  0  0
  -21.4740   18.6787  -26.9590 H   0  0  0  0  0  0  0  0  0  0  0  0
  1  2  1  0  0  0  0
  1  3  2  0  0  0  0
  2  4  2  0  0  0  0
  3  5  1  0  0  0  0
  4  6  1  0  0  0  0
  5  6  2  0  0  0  0
  6 20  1  0  0  0  0
  7  8  2  0  0  0  0
  7 13  1  0  0  0  0
  8 14  1  0  0  0  0
  9 11  2  0  0  0  0
  9 12  1  0  0  0  0
 10 12  2  0  0  0  0
 10 15  1  0  0  0  0
 11 21  1  0  0  0  0
 12 16  1  0  0  0  0
 13 22  1  0  0  0  0
 13 26  2  0  0  0  0
 14 23  1  0  0  0  0
 14 27  2  0  0  0  0
 15 21  1  0  0  0  0
 15 28  2  0  0  0  0
 16 24  1  0  0  0  0
 16 29  2  0  0  0  0
 17 18  1  0  0  0  0
 17 25  1  0  0  0  0
 17 30  2  0  0  0  0
 18 23  1  0  0  0  0
 19 20  1  0  0  0  0
 19 25  1  0  0  0  0
 20 24  1  0  0  0  0
 22 23  1  0  0  0  0
  1 31  1  0  0  0  0
  2 32  1  0  0  0  0
  3 33  1  0  0  0  0
  4 34  1  0  0  0  0
  5 35  1  0  0  0  0
  7 36  1  0  0  0  0
  8 37  1  0  0  0  0
  9 38  1  0  0  0  0
 10 39  1  0  0  0  0
 11 40  1  0  0  0  0
 18 41  1  0  0  0  0
 18 42  1  0  0  0  0
 19 43  1  0  0  0  0
 19 44  1  0  0  0  0
 20 45  1  0  0  0  0
 21 46  1  0  0  0  0
 22 47  1  0  0  0  0
 24 48  1  0  0  0  0
 25 49  1  0  0  0  0
M  END
> <FRED Chemgauss4 score>
-9.427904

$$$$
36
  -OEChem-08042116223D

 61 64  0     1  0  0  0  0  0999 V2000
  -23.0418   12.2034  -29.0133 C   0  0  0  0  0  0  0  0  0  0  0  0
  -23.6819   13.2223  -28.3141 C   0  0  0  0  0  0  0  0  0  0  0  0
  -21.7477   12.3951  -29.4982 C   0  0  0  0  0  0  0  0  0  0  0  0
  -23.0305   14.4368  -28.0971 C   0  0  0  0  0  0  0  0  0  0  0  0
  -19.7743   13.8214  -29.7699 C   0  0  0  0  0  0  0  0  0  0  0  0
  -19.1228   15.0359  -29.5530 C   0  0  0  0  0  0  0  0  0  0  0  0
  -21.6754   14.1330  -20.2911 C   0  0  0  0  0  0  0  0  0  0  0  0
  -21.0571   15.8632  -28.3689 C   0  0  0  0  0  0  0  0  0  0  0  0
  -22.9725   14.5946  -20.4471 C   0  0  0  0  0  0  0  0  0  0  0  0
  -22.6120   15.1301  -22.6519 C   0  0  0  0  0  0  0  0  0  0  0  0
  -21.0769   13.6111  -29.2890 C   0  0  0  0  0  0  0  0  0  0  0  0
  -21.7279   14.6472  -28.5780 C   0  0  0  0  0  0  0  0  0  0  0  0
  -21.2980   14.6938  -22.5993 C   0  0  0  0  0  0  0  0  0  0  0  0
  -19.7630   16.0548  -28.8538 C   0  0  0  0  0  0  0  0  0  0  0  0
  -20.8285   14.1870  -21.3926 C   0  0  0  0  0  0  0  0  0  0  0  0
  -22.4580   22.1843  -33.0572 C   0  0  0  0  0  0  0  0  0  0  0  0
  -21.6067   22.7896  -32.2299 C   0  0  0  0  0  0  0  0  0  0  0  0
  -23.0115   20.8546  -32.7390 C   0  0  0  0  0  0  0  0  0  0  0  0
  -21.1820   22.1587  -30.9616 C   0  0  0  0  0  0  0  0  0  0  0  0
  -20.4503   14.7772  -23.8018 C   0  0  0  0  0  0  0  0  0  0  0  0
  -20.1346   15.9178  -24.4327 C   0  0  0  0  0  0  0  0  0  0  0  0
  -19.2585   15.8828  -25.6384 C   0  0  0  0  0  0  0  0  0  0  0  0
  -20.3699   19.1369  -29.7746 C   0  0  0  0  0  0  0  0  0  0  0  0
  -19.4257   13.6938  -21.2453 C   0  0  0  0  0  0  0  0  0  0  0  0
  -21.3423   20.2468  -29.4667 C   0  0  0  0  0  0  0  0  0  0  0  0
  -18.2274   17.3975  -27.3220 C   0  0  0  0  0  0  0  0  0  0  0  0
  -19.0648   17.3525  -28.6227 C   0  0  2  0  0  0  0  0  0  0  0  0
  -23.4644   15.0935  -21.6032 N   0  0  0  0  0  0  0  0  0  0  0  0
  -22.6004   20.2923  -31.5579 N   0  0  0  0  0  0  0  0  0  0  0  0
  -21.7220   20.9295  -30.7122 N   0  0  0  0  0  0  0  0  0  0  0  0
  -19.0386   17.1507  -26.1585 N   0  0  0  0  0  0  0  0  0  0  0  0
  -20.0085   18.4897  -28.6224 N   0  0  0  0  0  0  0  0  0  0  0  0
  -23.7952   20.3138  -33.5162 O   0  0  0  0  0  0  0  0  0  0  0  0
  -20.3948   22.7598  -30.2323 O   0  0  0  0  0  0  0  0  0  0  0  0
  -18.8018   14.8384  -26.0917 O   0  0  0  0  0  0  0  0  0  0  0  0
  -19.9800   18.8754  -30.9095 O   0  0  0  0  0  0  0  0  0  0  0  0
  -23.5498   11.2586  -29.1819 H   0  0  0  0  0  0  0  0  0  0  0  0
  -24.6895   13.0725  -27.9374 H   0  0  0  0  0  0  0  0  0  0  0  0
  -21.2668   11.5843  -30.0417 H   0  0  0  0  0  0  0  0  0  0  0  0
  -23.5503   15.2195  -27.5482 H   0  0  0  0  0  0  0  0  0  0  0  0
  -19.2547   13.0388  -30.3193 H   0  0  0  0  0  0  0  0  0  0  0  0
  -18.1150   15.1770  -29.9343 H   0  0  0  0  0  0  0  0  0  0  0  0
  -21.3402   13.7435  -19.3358 H   0  0  0  0  0  0  0  0  0  0  0  0
  -21.5465   16.6684  -27.8233 H   0  0  0  0  0  0  0  0  0  0  0  0
  -23.6726   14.5743  -19.6183 H   0  0  0  0  0  0  0  0  0  0  0  0
  -23.0406   15.5367  -23.5635 H   0  0  0  0  0  0  0  0  0  0  0  0
  -22.7649   22.6533  -33.9851 H   0  0  0  0  0  0  0  0  0  0  0  0
  -21.2014   23.7671  -32.4668 H   0  0  0  0  0  0  0  0  0  0  0  0
  -20.0588   13.8271  -24.1582 H   0  0  0  0  0  0  0  0  0  0  0  0
  -20.4891   16.8837  -24.0889 H   0  0  0  0  0  0  0  0  0  0  0  0
  -19.3719   12.6262  -21.4865 H   0  0  0  0  0  0  0  0  0  0  0  0
  -18.7434   14.2378  -21.9096 H   0  0  0  0  0  0  0  0  0  0  0  0
  -19.0602   13.8406  -20.2216 H   0  0  0  0  0  0  0  0  0  0  0  0
  -22.2383   19.8316  -28.9959 H   0  0  0  0  0  0  0  0  0  0  0  0
  -20.8783   20.9688  -28.7884 H   0  0  0  0  0  0  0  0  0  0  0  0
  -17.4448   16.6303  -27.3215 H   0  0  0  0  0  0  0  0  0  0  0  0
  -17.7399   18.3681  -27.1809 H   0  0  0  0  0  0  0  0  0  0  0  0
  -18.3626   17.5500  -29.4550 H   0  0  0  0  0  0  0  0  0  0  0  0
  -22.9405   19.3785  -31.2748 H   0  0  0  0  0  0  0  0  0  0  0  0
  -19.4729   17.9464  -25.6938 H   0  0  0  0  0  0  0  0  0  0  0  0
  -20.3963   18.7972  -27.7520 H   0  0  0  0  0  0  0  0  0  0  0  0
  1  2  1  0  0  0  0
  1  3  2  0  0  0  0
  2  4  2  0  0  0  0
  3 11  1  0  0  0  0
  4 12  1  0  0  0  0
  5  6  2  0  0  0  0
  5 11  1  0  0  0  0
  6 14  1  0  0  0  0
  7  9  2  0  0  0  0
  7 15  1  0  0  0  0
  8 12  1  0  0  0  0
  8 14  2  0  0  0  0
  9 28  1  0  0  0  0
 10 13  1  0  0  0  0
 10 28  2  0  0  0  0
 11 12  2  0  0  0  0
 13 15  2  0  0  0  0
 13 20  1  0  0  0  0
 14 27  1  0  0  0  0
 15 24  1  0  0  0  0
 16 17  2  0  0  0  0
 16 18  1  0  0  0  0
 17 19  1  0  0  0  0
 18 29  1  0  0  0  0
 18 33  2  0  0  0  0
 19 30  1  0  0  0  0
 19 34  2  0  0  0  0
 20 21  2  0  0  0  0
 21 22  1  0  0  0  0
 22 31  1  0  0  0  0
 22 35  2  0  0  0  0
 23 25  1  0  0  0  0
 23 32  1  0  0  0  0
 23 36  2  0  0  0  0
 25 30  1  0  0  0  0
 26 27  1  0  0  0  0
 26 31  1  0  0  0  0
 27 32  1  0  0  0  0
 29 30  1  0  0  0  0
  1 37  1  0  0  0  0
  2 38  1  0  0  0  0
  3 39  1  0  0  0  0
  4 40  1  0  0  0  0
  5 41  1  0  0  0  0
  6 42  1  0  0  0  0
  7 43  1  0  0  0  0
  8 44  1  0  0  0  0
  9 45  1  0  0  0  0
 10 46  1  0  0  0  0
 16 47  1  0  0  0  0
 17 48  1  0  0  0  0
 20 49  1  0  0  0  0
 21 50  1  0  0  0  0
 24 51  1  0  0  0  0
 24 52  1  0  0  0  0
 24 53  1  0  0  0  0
 25 54  1  0  0  0  0
 25 55  1  0  0  0  0
 26 56  1  0  0  0  0
 26 57  1  0  0  0  0
 27 58  1  0  0  0  0
 29 59  1  0  0  0  0
 31 60  1  0  0  0  0
 32 61  1  0  0  0  0
M  END
> <FRED Chemgauss4 score>
-2.927132

$$$$
16
  -OEChem-08042116223D

 52 54  0     1  0  0  0  0  0999 V2000
  -23.8481   15.2335  -29.9054 C   0  0  0  0  0  0  0  0  0  0  0  0
  -22.7974   14.6962  -30.6489 C   0  0  0  0  0  0  0  0  0  0  0  0
  -23.5963   15.8200  -28.6650 C   0  0  0  0  0  0  0  0  0  0  0  0
  -21.4949   14.7451  -30.1521 C   0  0  0  0  0  0  0  0  0  0  0  0
  -22.2938   15.8689  -28.1682 C   0  0  0  0  0  0  0  0  0  0  0  0
  -21.2431   15.3315  -28.9118 C   0  0  0  0  0  0  0  0  0  0  0  0
  -19.5515   21.6493  -25.9219 C   0  0  0  0  0  0  0  0  0  0  0  0
  -18.5513   21.2045  -26.6946 C   0  0  0  0  0  0  0  0  0  0  0  0
  -17.2260   21.8899  -26.5892 C   0  0  0  0  0  0  0  0  0  0  0  0
  -21.1529   16.6381  -21.3893 C   0  0  0  0  0  0  0  0  0  0  0  0
  -18.2283   23.3906  -24.8797 C   0  0  0  0  0  0  0  0  0  0  0  0
  -22.2075   16.3647  -23.3866 C   0  0  0  0  0  0  0  0  0  0  0  0
  -18.7237   20.1053  -27.6026 C   0  0  0  0  0  0  0  0  0  0  0  0
  -19.0819   18.8784  -27.2029 C   0  0  0  0  0  0  0  0  0  0  0  0
  -19.2412   17.7851  -28.2013 C   0  0  0  0  0  0  0  0  0  0  0  0
  -20.1020   14.5562  -25.1510 C   0  0  0  0  0  0  0  0  0  0  0  0
  -20.6120   15.3476  -21.9648 C   0  0  0  0  0  0  0  0  0  0  0  0
  -21.1941   14.2097  -24.1715 C   0  0  0  0  0  0  0  0  0  0  0  0
  -19.4533   14.1568  -27.5245 C   0  0  0  0  0  0  0  0  0  0  0  0
  -19.8251   15.3849  -28.3701 C   0  0  2  0  0  0  0  0  0  0  0  0
  -19.4130   22.6938  -25.0493 N   0  0  0  0  0  0  0  0  0  0  0  0
  -17.1765   22.9381  -25.6780 N   0  0  0  0  0  0  0  0  0  0  0  0
  -22.0675   17.1618  -22.2695 N   0  0  0  0  0  0  0  0  0  0  0  0
  -21.3451   15.2988  -23.1955 N   0  0  0  0  0  0  0  0  0  0  0  0
  -19.6140   16.5922  -27.6057 N   0  0  0  0  0  0  0  0  0  0  0  0
  -20.3344   13.9877  -26.3986 N   0  0  0  0  0  0  0  0  0  0  0  0
  -16.2603   21.5430  -27.2651 O   0  0  0  0  0  0  0  0  0  0  0  0
  -20.8130   17.1120  -20.3146 O   0  0  0  0  0  0  0  0  0  0  0  0
  -18.1104   24.3305  -24.0931 O   0  0  0  0  0  0  0  0  0  0  0  0
  -22.9484   16.5782  -24.3370 O   0  0  0  0  0  0  0  0  0  0  0  0
  -19.0531   17.9528  -29.4020 O   0  0  0  0  0  0  0  0  0  0  0  0
  -19.1353   15.2578  -24.8650 O   0  0  0  0  0  0  0  0  0  0  0  0
  -24.8620   15.1966  -30.2929 H   0  0  0  0  0  0  0  0  0  0  0  0
  -22.9931   14.2405  -31.6152 H   0  0  0  0  0  0  0  0  0  0  0  0
  -24.4139   16.2394  -28.0863 H   0  0  0  0  0  0  0  0  0  0  0  0
  -20.6825   14.3237  -30.7383 H   0  0  0  0  0  0  0  0  0  0  0  0
  -22.1071   16.3276  -27.2008 H   0  0  0  0  0  0  0  0  0  0  0  0
  -20.5418   21.2071  -25.9387 H   0  0  0  0  0  0  0  0  0  0  0  0
  -18.5438   20.3300  -28.6496 H   0  0  0  0  0  0  0  0  0  0  0  0
  -19.2610   18.6547  -26.1558 H   0  0  0  0  0  0  0  0  0  0  0  0
  -19.5404   15.4225  -22.1603 H   0  0  0  0  0  0  0  0  0  0  0  0
  -20.8693   14.4959  -21.3319 H   0  0  0  0  0  0  0  0  0  0  0  0
  -22.1385   14.0717  -24.7062 H   0  0  0  0  0  0  0  0  0  0  0  0
  -20.9390   13.2865  -23.6429 H   0  0  0  0  0  0  0  0  0  0  0  0
  -19.5338   13.2405  -28.1203 H   0  0  0  0  0  0  0  0  0  0  0  0
  -18.4311   14.2099  -27.1348 H   0  0  0  0  0  0  0  0  0  0  0  0
  -19.1328   15.4256  -29.2212 H   0  0  0  0  0  0  0  0  0  0  0  0
  -20.2195   22.9721  -24.4982 H   0  0  0  0  0  0  0  0  0  0  0  0
  -16.2881   23.4223  -25.5837 H   0  0  0  0  0  0  0  0  0  0  0  0
  -22.5758   18.0255  -22.1175 H   0  0  0  0  0  0  0  0  0  0  0  0
  -19.7186   16.5360  -26.5968 H   0  0  0  0  0  0  0  0  0  0  0  0
  -21.1721   13.4218  -26.5223 H   0  0  0  0  0  0  0  0  0  0  0  0
  1  2  1  0  0  0  0
  1  3  2  0  0  0  0
  2  4  2  0  0  0  0
  3  5  1  0  0  0  0
  4  6  1  0  0  0  0
  5  6  2  0  0  0  0
  6 20  1  0  0  0  0
  7  8  2  0  0  0  0
  7 21  1  0  0  0  0
  8  9  1  0  0  0  0
  8 13  1  0  0  0  0
  9 22  1  0  0  0  0
  9 27  2  0  0  0  0
 10 17  1  0  0  0  0
 10 23  1  0  0  0  0
 10 28  2  0  0  0  0
 11 21  1  0  0  0  0
 11 22  1  0  0  0  0
 11 29  2  0  0  0  0
 12 23  1  0  0  0  0
 12 24  1  0  0  0  0
 12 30  2  0  0  0  0
 13 14  2  0  0  0  0
 14 15  1  0  0  0  0
 15 25  1  0  0  0  0
 15 31  2  0  0  0  0
 16 18  1  0  0  0  0
 16 26  1  0  0  0  0
 16 32  2  0  0  0  0
 17 24  1  0  0  0  0
 18 24  1  0  0  0  0
 19 20  1  0  0  0  0
 19 26  1  0  0  0  0
 20 25  1  0  0  0  0
  1 33  1  0  0  0  0
  2 34  1  0  0  0  0
  3 35  1  0  0  0  0
  4 36  1  0  0  0  0
  5 37  1  0  0  0  0
  7 38  1  0  0  0  0
 13 39  1  0  0  0  0
 14 40  1  0  0  0  0
 17 41  1  0  0  0  0
 17 42  1  0  0  0  0
 18 43  1  0  0  0  0
 18 44  1  0  0  0  0
 19 45  1  0  0  0  0
 19 46  1  0  0  0  0
 20 47  1  0  0  0  0
 21 48  1  0  0  0  0
 22 49  1  0  0  0  0
 23 50  1  0  0  0  0
 25 51  1  0  0  0  0
 26 52  1  0  0  0  0
M  END
> <FRED Chemgauss4 score>
-5.505132

$$$$
35
  -OEChem-08042116223D

 53 56  0     1  0  0  0  0  0999 V2000
  -24.1971   15.0579  -31.4962 C   0  0  0  0  0  0  0  0  0  0  0  0
  -23.5413   16.2958  -31.4201 C   0  0  0  0  0  0  0  0  0  0  0  0
  -19.1361   21.6541  -24.4300 C   0  0  0  0  0  0  0  0  0  0  0  0
  -19.2389   20.5909  -25.3200 C   0  0  0  0  0  0  0  0  0  0  0  0
  -23.7361   13.9636  -30.7626 C   0  0  0  0  0  0  0  0  0  0  0  0
  -22.4163   16.4575  -30.6079 C   0  0  0  0  0  0  0  0  0  0  0  0
  -18.7305   22.8812  -24.9296 C   0  0  0  0  0  0  0  0  0  0  0  0
  -18.5409   22.0505  -27.0631 C   0  0  0  0  0  0  0  0  0  0  0  0
  -18.9374   20.7845  -26.6635 C   0  0  0  0  0  0  0  0  0  0  0  0
  -22.6276   14.1365  -29.9499 C   0  0  0  0  0  0  0  0  0  0  0  0
  -21.9727   15.3726  -29.8668 C   0  0  0  0  0  0  0  0  0  0  0  0
  -20.0424   15.2303  -20.9701 C   0  0  0  0  0  0  0  0  0  0  0  0
  -20.8358   16.2012  -21.4211 C   0  0  0  0  0  0  0  0  0  0  0  0
  -19.8873   13.9674  -21.7162 C   0  0  0  0  0  0  0  0  0  0  0  0
  -21.5914   16.0569  -22.6840 C   0  0  0  0  0  0  0  0  0  0  0  0
  -19.0360   19.6778  -27.6316 C   0  0  0  0  0  0  0  0  0  0  0  0
  -19.7516   18.5600  -27.4392 C   0  0  0  0  0  0  0  0  0  0  0  0
  -19.7862   17.5083  -28.4952 C   0  0  0  0  0  0  0  0  0  0  0  0
  -21.1478   14.4247  -25.7147 C   0  0  0  0  0  0  0  0  0  0  0  0
  -21.9388   13.1022  -29.1142 C   0  0  0  0  0  0  0  0  0  0  0  0
  -20.7755   15.2759  -28.9636 C   0  0  2  0  0  0  0  0  0  0  0  0
  -21.0821   13.9753  -28.1766 C   0  0  1  0  0  0  0  0  0  0  0  0
  -22.1358   14.6629  -24.6014 C   0  0  0  0  0  0  0  0  0  0  0  0
  -18.4292   23.1076  -26.2278 N   0  0  0  0  0  0  0  0  0  0  0  0
  -20.5997   13.8596  -22.8829 N   0  0  0  0  0  0  0  0  0  0  0  0
  -21.4140   14.8710  -23.3376 N   0  0  0  0  0  0  0  0  0  0  0  0
  -20.5734   16.4260  -28.1263 N   0  0  0  0  0  0  0  0  0  0  0  0
  -21.7868   14.2240  -26.9351 N   0  0  0  0  0  0  0  0  0  0  0  0
  -19.1505   13.0844  -21.2823 O   0  0  0  0  0  0  0  0  0  0  0  0
  -22.3095   16.9832  -23.0571 O   0  0  0  0  0  0  0  0  0  0  0  0
  -19.1788   17.6177  -29.5553 O   0  0  0  0  0  0  0  0  0  0  0  0
  -19.9311   14.4150  -25.5478 O   0  0  0  0  0  0  0  0  0  0  0  0
  -25.0739   14.9527  -32.1290 H   0  0  0  0  0  0  0  0  0  0  0  0
  -23.9157   17.1382  -31.9955 H   0  0  0  0  0  0  0  0  0  0  0  0
  -19.3662   21.5265  -23.3785 H   0  0  0  0  0  0  0  0  0  0  0  0
  -19.5550   19.6178  -24.9525 H   0  0  0  0  0  0  0  0  0  0  0  0
  -24.2373   13.0039  -30.8306 H   0  0  0  0  0  0  0  0  0  0  0  0
  -21.9057   17.4147  -30.5601 H   0  0  0  0  0  0  0  0  0  0  0  0
  -18.6340   23.7416  -24.2757 H   0  0  0  0  0  0  0  0  0  0  0  0
  -18.2917   22.2674  -28.0980 H   0  0  0  0  0  0  0  0  0  0  0  0
  -19.4914   15.3435  -20.0434 H   0  0  0  0  0  0  0  0  0  0  0  0
  -20.9479   17.1284  -20.8700 H   0  0  0  0  0  0  0  0  0  0  0  0
  -18.4909   19.8266  -28.5609 H   0  0  0  0  0  0  0  0  0  0  0  0
  -20.3251   18.3915  -26.5340 H   0  0  0  0  0  0  0  0  0  0  0  0
  -22.6873   12.5155  -28.5635 H   0  0  0  0  0  0  0  0  0  0  0  0
  -21.3139   12.4309  -29.7169 H   0  0  0  0  0  0  0  0  0  0  0  0
  -19.8385   15.1327  -29.5568 H   0  0  0  0  0  0  0  0  0  0  0  0
  -20.1721   13.4710  -27.9291 H   0  0  0  0  0  0  0  0  0  0  0  0
  -22.7351   15.5505  -24.8243 H   0  0  0  0  0  0  0  0  0  0  0  0
  -22.7958   13.7964  -24.4996 H   0  0  0  0  0  0  0  0  0  0  0  0
  -20.5415   13.0181  -23.4479 H   0  0  0  0  0  0  0  0  0  0  0  0
  -21.0308   16.4482  -27.2161 H   0  0  0  0  0  0  0  0  0  0  0  0
  -22.8058   14.2536  -26.9565 H   0  0  0  0  0  0  0  0  0  0  0  0
  1  2  1  0  0  0  0
  1  5  2  0  0  0  0
  2  6  2  0  0  0  0
  3  4  2  0  0  0  0
  3  7  1  0  0  0  0
  4  9  1  0  0  0  0
  5 10  1  0  0  0  0
  6 11  1  0  0  0  0
  7 24  2  0  0  0  0
  8  9  2  0  0  0  0
  8 24  1  0  0  0  0
  9 16  1  0  0  0  0
 10 11  2  0  0  0  0
 10 20  1  0  0  0  0
 11 21  1  0  0  0  0
 12 13  2  0  0  0  0
 12 14  1  0  0  0  0
 13 15  1  0  0  0  0
 14 25  1  0  0  0  0
 14 29  2  0  0  0  0
 15 26  1  0  0  0  0
 15 30  2  0  0  0  0
 16 17  2  0  0  0  0
 17 18  1  0  0  0  0
 18 27  1  0  0  0  0
 18 31  2  0  0  0  0
 19 23  1  0  0  0  0
 19 28  1  0  0  0  0
 19 32  2  0  0  0  0
 20 22  1  0  0  0  0
 21 22  1  0  0  0  0
 21 27  1  0  0  0  0
 22 28  1  0  0  0  0
 23 26  1  0  0  0  0
 25 26  1  0  0  0  0
  1 33  1  0  0  0  0
  2 34  1  0  0  0  0
  3 35  1  0  0  0  0
  4 36  1  0  0  0  0
  5 37  1  0  0  0  0
  6 38  1  0  0  0  0
  7 39  1  0  0  0  0
  8 40  1  0  0  0  0
 12 41  1  0  0  0  0
 13 42  1  0  0  0  0
 16 43  1  0  0  0  0
 17 44  1  0  0  0  0
 20 45  1  0  0  0  0
 20 46  1  0  0  0  0
 21 47  1  0  0  0  0
 22 48  1  0  0  0  0
 23 49  1  0  0  0  0
 23 50  1  0  0  0  0
 25 51  1  0  0  0  0
 27 52  1  0  0  0  0
 28 53  1  0  0  0  0
M  END
> <FRED Chemgauss4 score>
-9.032562

$$$$
59
  -OEChem-08042116223D

 58 62  0     1  0  0  0  0  0999 V2000
  -23.5174   11.5396  -28.3562 C   0  0  0  0  0  0  0  0  0  0  0  0
  -22.4281   11.7627  -29.1931 C   0  0  0  0  0  0  0  0  0  0  0  0
  -23.9058   12.5170  -27.4395 C   0  0  0  0  0  0  0  0  0  0  0  0
  -21.7230   12.9641  -29.1166 C   0  0  0  0  0  0  0  0  0  0  0  0
  -23.5844   14.7271  -26.4320 C   0  0  0  0  0  0  0  0  0  0  0  0
  -22.8792   15.9284  -26.3554 C   0  0  0  0  0  0  0  0  0  0  0  0
  -19.1292   22.8573  -24.1851 C   0  0  0  0  0  0  0  0  0  0  0  0
  -21.4015   15.1742  -28.1091 C   0  0  0  0  0  0  0  0  0  0  0  0
  -17.3419   20.6093  -26.6206 C   0  0  0  0  0  0  0  0  0  0  0  0
  -16.1261   22.5370  -26.1380 C   0  0  0  0  0  0  0  0  0  0  0  0
  -18.4831   24.0227  -23.8412 C   0  0  0  0  0  0  0  0  0  0  0  0
  -23.2075   13.7321  -27.3487 C   0  0  0  0  0  0  0  0  0  0  0  0
  -22.0998   13.9590  -28.1998 C   0  0  0  0  0  0  0  0  0  0  0  0
  -18.2988   22.1568  -25.1039 C   0  0  0  0  0  0  0  0  0  0  0  0
  -18.4069   20.9408  -25.7935 C   0  0  0  0  0  0  0  0  0  0  0  0
  -21.7899   16.1515  -27.1923 C   0  0  0  0  0  0  0  0  0  0  0  0
  -17.1540   22.9330  -25.2924 C   0  0  0  0  0  0  0  0  0  0  0  0
  -23.3979   21.4289  -32.8550 C   0  0  0  0  0  0  0  0  0  0  0  0
  -22.6303   22.1489  -32.0379 C   0  0  0  0  0  0  0  0  0  0  0  0
  -24.0881   20.2160  -32.3773 C   0  0  0  0  0  0  0  0  0  0  0  0
  -22.4381   21.7666  -30.6223 C   0  0  0  0  0  0  0  0  0  0  0  0
  -19.5871   20.0495  -25.6525 C   0  0  0  0  0  0  0  0  0  0  0  0
  -22.0295   19.0106  -28.7682 C   0  0  0  0  0  0  0  0  0  0  0  0
  -22.9506   20.2021  -28.8319 C   0  0  0  0  0  0  0  0  0  0  0  0
  -20.3923   17.7039  -25.7280 C   0  0  0  0  0  0  0  0  0  0  0  0
  -21.0373   17.4367  -27.1092 C   0  0  2  0  0  0  0  0  0  0  0  0
  -16.2331   21.3627  -26.8022 N   0  0  0  0  0  0  0  0  0  0  0  0
  -17.2915   24.0592  -24.5151 N   0  0  0  0  0  0  0  0  0  0  0  0
  -23.8919   19.8838  -31.0615 N   0  0  0  0  0  0  0  0  0  0  0  0
  -23.0978   20.6376  -30.2284 N   0  0  0  0  0  0  0  0  0  0  0  0
  -19.3474   18.6908  -25.8112 N   0  0  0  0  0  0  0  0  0  0  0  0
  -21.8845   18.5919  -27.4719 N   0  0  0  0  0  0  0  0  0  0  0  0
  -24.7913   19.5660  -33.1478 O   0  0  0  0  0  0  0  0  0  0  0  0
  -21.7202   22.4658  -29.9092 O   0  0  0  0  0  0  0  0  0  0  0  0
  -20.6891   20.5439  -25.4295 O   0  0  0  0  0  0  0  0  0  0  0  0
  -21.5027   18.5100  -29.7583 O   0  0  0  0  0  0  0  0  0  0  0  0
  -24.0655   10.6040  -28.4163 H   0  0  0  0  0  0  0  0  0  0  0  0
  -22.1262   11.0011  -29.9061 H   0  0  0  0  0  0  0  0  0  0  0  0
  -24.7607   12.3208  -26.7955 H   0  0  0  0  0  0  0  0  0  0  0  0
  -20.8744   13.1168  -29.7805 H   0  0  0  0  0  0  0  0  0  0  0  0
  -24.4327   14.5740  -25.7677 H   0  0  0  0  0  0  0  0  0  0  0  0
  -23.1882   16.6844  -25.6383 H   0  0  0  0  0  0  0  0  0  0  0  0
  -20.0958   22.5462  -23.8130 H   0  0  0  0  0  0  0  0  0  0  0  0
  -20.5476   15.3615  -28.7583 H   0  0  0  0  0  0  0  0  0  0  0  0
  -17.3491   19.6833  -27.1895 H   0  0  0  0  0  0  0  0  0  0  0  0
  -15.2291   23.1196  -26.3017 H   0  0  0  0  0  0  0  0  0  0  0  0
  -18.7642   24.8292  -23.1787 H   0  0  0  0  0  0  0  0  0  0  0  0
  -23.5341   21.7156  -33.8915 H   0  0  0  0  0  0  0  0  0  0  0  0
  -22.1240   23.0400  -32.3922 H   0  0  0  0  0  0  0  0  0  0  0  0
  -23.9328   19.9301  -28.4341 H   0  0  0  0  0  0  0  0  0  0  0  0
  -22.5355   21.0239  -28.2412 H   0  0  0  0  0  0  0  0  0  0  0  0
  -21.1252   18.0897  -25.0103 H   0  0  0  0  0  0  0  0  0  0  0  0
  -19.9527   16.7977  -25.2979 H   0  0  0  0  0  0  0  0  0  0  0  0
  -20.2112   17.4318  -27.8457 H   0  0  0  0  0  0  0  0  0  0  0  0
  -16.6124   24.8049  -24.4511 H   0  0  0  0  0  0  0  0  0  0  0  0
  -24.3356   19.0615  -30.6645 H   0  0  0  0  0  0  0  0  0  0  0  0
  -18.4155   18.3649  -26.0569 H   0  0  0  0  0  0  0  0  0  0  0  0
  -22.3681   19.0846  -26.7467 H   0  0  0  0  0  0  0  0  0  0  0  0
  1  2  1  0  0  0  0
  1  3  2  0  0  0  0
  2  4  2  0  0  0  0
  3 12  1  0  0  0  0
  4 13  1  0  0  0  0
  5  6  2  0  0  0  0
  5 12  1  0  0  0  0
  6 16  1  0  0  0  0
  7 11  2  0  0  0  0
  7 14  1  0  0  0  0
  8 13  1  0  0  0  0
  8 16  2  0  0  0  0
  9 15  1  0  0  0  0
  9 27  2  0  0  0  0
 10 17  2  0  0  0  0
 10 27  1  0  0  0  0
 11 28  1  0  0  0  0
 12 13  2  0  0  0  0
 14 15  2  0  0  0  0
 14 17  1  0  0  0  0
 15 22  1  0  0  0  0
 16 26  1  0  0  0  0
 17 28  1  0  0  0  0
 18 19  2  0  0  0  0
 18 20  1  0  0  0  0
 19 21  1  0  0  0  0
 20 29  1  0  0  0  0
 20 33  2  0  0  0  0
 21 30  1  0  0  0  0
 21 34  2  0  0  0  0
 22 31  1  0  0  0  0
 22 35  2  0  0  0  0
 23 24  1  0  0  0  0
 23 32  1  0  0  0  0
 23 36  2  0  0  0  0
 24 30  1  0  0  0  0
 25 26  1  0  0  0  0
 25 31  1  0  0  0  0
 26 32  1  0  0  0  0
 29 30  1  0  0  0  0
  1 37  1  0  0  0  0
  2 38  1  0  0  0  0
  3 39  1  0  0  0  0
  4 40  1  0  0  0  0
  5 41  1  0  0  0  0
  6 42  1  0  0  0  0
  7 43  1  0  0  0  0
  8 44  1  0  0  0  0
  9 45  1  0  0  0  0
 10 46  1  0  0  0  0
 11 47  1  0  0  0  0
 18 48  1  0  0  0  0
 19 49  1  0  0  0  0
 24 50  1  0  0  0  0
 24 51  1  0  0  0  0
 25 52  1  0  0  0  0
 25 53  1  0  0  0  0
 26 54  1  0  0  0  0
 28 55  1  0  0  0  0
 29 56  1  0  0  0  0
 31 57  1  0  0  0  0
 32 58  1  0  0  0  0
M  END
> <FRED Chemgauss4 score>
-6.744980

$$$$
43
  -OEChem-08042116223D

 56 59  0     1  0  0  0  0  0999 V2000
  -20.7361   20.8935  -32.1198 C   0  0  0  0  0  0  0  0  0  0  0  0
  -21.9024   20.2241  -32.5227 C   0  0  0  0  0  0  0  0  0  0  0  0
  -20.1480   20.6185  -30.8834 C   0  0  0  0  0  0  0  0  0  0  0  0
  -22.4970   19.2688  -31.6958 C   0  0  0  0  0  0  0  0  0  0  0  0
  -20.7506   19.6787  -30.0641 C   0  0  0  0  0  0  0  0  0  0  0  0
  -21.9119   19.0061  -30.4675 C   0  0  0  0  0  0  0  0  0  0  0  0
  -19.5040   13.5626  -27.6684 C   0  0  0  0  0  0  0  0  0  0  0  0
  -20.8109   13.4469  -27.4063 C   0  0  0  0  0  0  0  0  0  0  0  0
  -19.0437   13.9875  -28.9627 C   0  0  0  0  0  0  0  0  0  0  0  0
  -19.3970   14.8961  -22.9672 C   0  0  0  0  0  0  0  0  0  0  0  0
  -19.9321   14.2714  -29.9213 C   0  0  0  0  0  0  0  0  0  0  0  0
  -20.5128   15.6278  -22.8330 C   0  0  0  0  0  0  0  0  0  0  0  0
  -21.8176   13.7587  -28.4665 C   0  0  0  0  0  0  0  0  0  0  0  0
  -21.4707   15.2543  -21.7619 C   0  0  0  0  0  0  0  0  0  0  0  0
  -19.8874   13.4914  -21.2613 C   0  0  0  0  0  0  0  0  0  0  0  0
  -20.7942   16.7453  -23.6899 C   0  0  0  0  0  0  0  0  0  0  0  0
  -20.9173   16.6329  -25.0186 C   0  0  0  0  0  0  0  0  0  0  0  0
  -21.2091   17.8364  -25.8456 C   0  0  0  0  0  0  0  0  0  0  0  0
  -22.8483   15.8326  -30.5283 C   0  0  0  0  0  0  0  0  0  0  0  0
  -20.2885   19.1978  -28.7230 C   0  0  0  0  0  0  0  0  0  0  0  0
  -22.3477   18.0136  -29.4296 C   0  0  2  0  0  0  0  0  0  0  0  0
  -21.5730   18.5320  -28.1933 C   0  0  1  0  0  0  0  0  0  0  0  0
  -19.6034   12.3256  -20.3590 C   0  0  0  0  0  0  0  0  0  0  0  0
  -22.2145   14.4894  -30.7857 C   0  0  0  0  0  0  0  0  0  0  0  0
  -19.0483   13.8153  -22.1955 N   0  0  0  0  0  0  0  0  0  0  0  0
  -21.0693   14.1602  -21.0175 N   0  0  0  0  0  0  0  0  0  0  0  0
  -21.2878   14.1636  -29.6918 N   0  0  0  0  0  0  0  0  0  0  0  0
  -21.3024   17.5329  -27.1973 N   0  0  0  0  0  0  0  0  0  0  0  0
  -22.0001   16.6701  -29.8117 N   0  0  0  0  0  0  0  0  0  0  0  0
  -23.0129   13.6423  -28.2004 O   0  0  0  0  0  0  0  0  0  0  0  0
  -22.5160   15.8668  -21.5662 O   0  0  0  0  0  0  0  0  0  0  0  0
  -21.3425   18.9557  -25.3613 O   0  0  0  0  0  0  0  0  0  0  0  0
  -23.9750   16.1333  -30.9139 O   0  0  0  0  0  0  0  0  0  0  0  0
  -20.2851   21.6299  -32.7795 H   0  0  0  0  0  0  0  0  0  0  0  0
  -22.3431   20.4492  -33.4900 H   0  0  0  0  0  0  0  0  0  0  0  0
  -19.2421   21.1308  -30.5783 H   0  0  0  0  0  0  0  0  0  0  0  0
  -23.3935   18.7469  -32.0135 H   0  0  0  0  0  0  0  0  0  0  0  0
  -18.7623   13.3396  -26.9097 H   0  0  0  0  0  0  0  0  0  0  0  0
  -21.1716   13.1290  -26.4354 H   0  0  0  0  0  0  0  0  0  0  0  0
  -17.9776   14.0712  -29.1370 H   0  0  0  0  0  0  0  0  0  0  0  0
  -18.6720   15.1385  -23.7395 H   0  0  0  0  0  0  0  0  0  0  0  0
  -19.6176   14.5945  -30.9074 H   0  0  0  0  0  0  0  0  0  0  0  0
  -20.9032   17.7031  -23.1900 H   0  0  0  0  0  0  0  0  0  0  0  0
  -20.8075   15.6749  -25.5175 H   0  0  0  0  0  0  0  0  0  0  0  0
  -19.4725   18.4779  -28.8511 H   0  0  0  0  0  0  0  0  0  0  0  0
  -19.9681   20.0196  -28.0757 H   0  0  0  0  0  0  0  0  0  0  0  0
  -23.4281   18.0528  -29.2562 H   0  0  0  0  0  0  0  0  0  0  0  0
  -22.1854   19.2983  -27.6961 H   0  0  0  0  0  0  0  0  0  0  0  0
  -19.0490   12.6685  -19.4890 H   0  0  0  0  0  0  0  0  0  0  0  0
  -19.0169   11.5851  -20.8979 H   0  0  0  0  0  0  0  0  0  0  0  0
  -20.5417   11.8769  -20.0416 H   0  0  0  0  0  0  0  0  0  0  0  0
  -22.9906   13.7204  -30.8413 H   0  0  0  0  0  0  0  0  0  0  0  0
  -21.6616   14.5149  -31.7292 H   0  0  0  0  0  0  0  0  0  0  0  0
  -21.6777   13.8487  -20.2659 H   0  0  0  0  0  0  0  0  0  0  0  0
  -21.1458   16.5753  -27.5094 H   0  0  0  0  0  0  0  0  0  0  0  0
  -21.0844   16.3138  -29.5431 H   0  0  0  0  0  0  0  0  0  0  0  0
  1  2  1  0  0  0  0
  1  3  2  0  0  0  0
  2  4  2  0  0  0  0
  3  5  1  0  0  0  0
  4  6  1  0  0  0  0
  5  6  2  0  0  0  0
  5 20  1  0  0  0  0
  6 21  1  0  0  0  0
  7  8  2  0  0  0  0
  7  9  1  0  0  0  0
  8 13  1  0  0  0  0
  9 11  2  0  0  0  0
 10 12  2  0  0  0  0
 10 25  1  0  0  0  0
 11 27  1  0  0  0  0
 12 14  1  0  0  0  0
 12 16  1  0  0  0  0
 13 27  1  0  0  0  0
 13 30  2  0  0  0  0
 14 26  1  0  0  0  0
 14 31  2  0  0  0  0
 15 23  1  0  0  0  0
 15 25  2  0  0  0  0
 15 26  1  0  0  0  0
 16 17  2  0  0  0  0
 17 18  1  0  0  0  0
 18 28  1  0  0  0  0
 18 32  2  0  0  0  0
 19 24  1  0  0  0  0
 19 29  1  0  0  0  0
 19 33  2  0  0  0  0
 20 22  1  0  0  0  0
 21 22  1  0  0  0  0
 21 29  1  0  0  0  0
 22 28  1  0  0  0  0
 24 27  1  0  0  0  0
  1 34  1  0  0  0  0
  2 35  1  0  0  0  0
  3 36  1  0  0  0  0
  4 37  1  0  0  0  0
  7 38  1  0  0  0  0
  8 39  1  0  0  0  0
  9 40  1  0  0  0  0
 10 41  1  0  0  0  0
 11 42  1  0  0  0  0
 16 43  1  0  0  0  0
 17 44  1  0  0  0  0
 20 45  1  0  0  0  0
 20 46  1  0  0  0  0
 21 47  1  0  0  0  0
 22 48  1  0  0  0  0
 23 49  1  0  0  0  0
 23 50  1  0  0  0  0
 23 51  1  0  0  0  0
 24 52  1  0  0  0  0
 24 53  1  0  0  0  0
 26 54  1  0  0  0  0
 28 55  1  0  0  0  0
 29 56  1  0  0  0  0
M  END
> <FRED Chemgauss4 score>
-6.453165

$$$$
19
  -OEChem-08042116223D

 60 63  0     1  0  0  0  0  0999 V2000
  -16.7508   24.2020  -25.0000 C   0  0  0  0  0  0  0  0  0  0  0  0
  -18.0580   24.3423  -24.5437 C   0  0  0  0  0  0  0  0  0  0  0  0
  -16.3939   23.0924  -25.7668 C   0  0  0  0  0  0  0  0  0  0  0  0
  -19.0134   23.3736  -24.8524 C   0  0  0  0  0  0  0  0  0  0  0  0
  -17.0009   20.9844  -26.8579 C   0  0  0  0  0  0  0  0  0  0  0  0
  -17.9563   20.0157  -27.1665 C   0  0  0  0  0  0  0  0  0  0  0  0
  -19.6205   21.2655  -25.9433 C   0  0  0  0  0  0  0  0  0  0  0  0
  -17.3425   22.1076  -26.0872 C   0  0  0  0  0  0  0  0  0  0  0  0
  -18.6719   22.2503  -25.6231 C   0  0  0  0  0  0  0  0  0  0  0  0
  -19.2635   20.1560  -26.7102 C   0  0  0  0  0  0  0  0  0  0  0  0
  -22.5981   15.5435  -22.1363 C   0  0  0  0  0  0  0  0  0  0  0  0
  -22.9270   14.6356  -30.4143 C   0  0  0  0  0  0  0  0  0  0  0  0
  -22.7942   14.0421  -20.4652 C   0  0  0  0  0  0  0  0  0  0  0  0
  -21.8920   12.9120  -29.3963 C   0  0  0  0  0  0  0  0  0  0  0  0
  -21.4749   15.0039  -22.6339 C   0  0  0  0  0  0  0  0  0  0  0  0
  -22.9470   15.4206  -29.3269 C   0  0  0  0  0  0  0  0  0  0  0  0
  -20.9130   13.8042  -21.9599 C   0  0  0  0  0  0  0  0  0  0  0  0
  -22.3493   14.8806  -28.0700 C   0  0  0  0  0  0  0  0  0  0  0  0
  -20.8170   15.5526  -23.7865 C   0  0  0  0  0  0  0  0  0  0  0  0
  -20.8574   16.8542  -24.0988 C   0  0  0  0  0  0  0  0  0  0  0  0
  -20.1515   17.3530  -25.3114 C   0  0  0  0  0  0  0  0  0  0  0  0
  -22.4027   17.8075  -29.2528 C   0  0  0  0  0  0  0  0  0  0  0  0
  -21.2215   12.9513  -27.0397 C   0  0  0  0  0  0  0  0  0  0  0  0
  -23.5265   16.7904  -29.3006 C   0  0  0  0  0  0  0  0  0  0  0  0
  -21.4855   19.6525  -27.8578 C   0  0  0  0  0  0  0  0  0  0  0  0
  -20.2836   19.1193  -27.0414 C   0  0  2  0  0  0  0  0  0  0  0  0
  -23.2924   15.0853  -21.0428 N   0  0  0  0  0  0  0  0  0  0  0  0
  -22.4070   13.3709  -30.4898 N   0  0  0  0  0  0  0  0  0  0  0  0
  -21.6519   13.3892  -20.8677 N   0  0  0  0  0  0  0  0  0  0  0  0
  -21.8326   13.5915  -28.1940 N   0  0  0  0  0  0  0  0  0  0  0  0
  -20.7920   18.4441  -25.8292 N   0  0  0  0  0  0  0  0  0  0  0  0
  -22.4484   18.6160  -28.1250 N   0  0  0  0  0  0  0  0  0  0  0  0
  -19.8908   13.2459  -22.3462 O   0  0  0  0  0  0  0  0  0  0  0  0
  -22.3373   15.5524  -27.0410 O   0  0  0  0  0  0  0  0  0  0  0  0
  -19.1371   16.8220  -25.7520 O   0  0  0  0  0  0  0  0  0  0  0  0
  -21.5520   17.8799  -30.1381 O   0  0  0  0  0  0  0  0  0  0  0  0
  -16.0077   24.9563  -24.7590 H   0  0  0  0  0  0  0  0  0  0  0  0
  -18.3349   25.2060  -23.9464 H   0  0  0  0  0  0  0  0  0  0  0  0
  -15.3660   23.0039  -26.1130 H   0  0  0  0  0  0  0  0  0  0  0  0
  -20.0293   23.5037  -24.4847 H   0  0  0  0  0  0  0  0  0  0  0  0
  -15.9848   20.8541  -27.2250 H   0  0  0  0  0  0  0  0  0  0  0  0
  -17.6699   19.1543  -27.7642 H   0  0  0  0  0  0  0  0  0  0  0  0
  -20.6468   21.3633  -25.5928 H   0  0  0  0  0  0  0  0  0  0  0  0
  -23.0385   16.4207  -22.6022 H   0  0  0  0  0  0  0  0  0  0  0  0
  -23.3533   14.9980  -31.3451 H   0  0  0  0  0  0  0  0  0  0  0  0
  -23.2674   13.5892  -19.5807 H   0  0  0  0  0  0  0  0  0  0  0  0
  -21.4530   11.9027  -29.3741 H   0  0  0  0  0  0  0  0  0  0  0  0
  -20.2755   14.8393  -24.4007 H   0  0  0  0  0  0  0  0  0  0  0  0
  -21.3995   17.5664  -23.4843 H   0  0  0  0  0  0  0  0  0  0  0  0
  -20.1467   13.1844  -27.0167 H   0  0  0  0  0  0  0  0  0  0  0  0
  -21.6969   13.3230  -26.1200 H   0  0  0  0  0  0  0  0  0  0  0  0
  -21.3590   11.8622  -27.1091 H   0  0  0  0  0  0  0  0  0  0  0  0
  -24.1417   16.9268  -28.4055 H   0  0  0  0  0  0  0  0  0  0  0  0
  -24.1673   16.9331  -30.1755 H   0  0  0  0  0  0  0  0  0  0  0  0
  -22.0214   20.4400  -27.3159 H   0  0  0  0  0  0  0  0  0  0  0  0
  -21.1748   20.0669  -28.8228 H   0  0  0  0  0  0  0  0  0  0  0  0
  -19.8184   18.3221  -27.6520 H   0  0  0  0  0  0  0  0  0  0  0  0
  -21.3376   12.5750  -20.3480 H   0  0  0  0  0  0  0  0  0  0  0  0
  -21.6368   18.8157  -25.4422 H   0  0  0  0  0  0  0  0  0  0  0  0
  -23.1996   18.4688  -27.4540 H   0  0  0  0  0  0  0  0  0  0  0  0
  1  2  1  0  0  0  0
  1  3  2  0  0  0  0
  2  4  2  0  0  0  0
  3  8  1  0  0  0  0
  4  9  1  0  0  0  0
  5  6  2  0  0  0  0
  5  8  1  0  0  0  0
  6 10  1  0  0  0  0
  7  9  1  0  0  0  0
  7 10  2  0  0  0  0
  8  9  2  0  0  0  0
 10 26  1  0  0  0  0
 11 15  2  0  0  0  0
 11 27  1  0  0  0  0
 12 16  2  0  0  0  0
 12 28  1  0  0  0  0
 13 27  2  0  0  0  0
 13 29  1  0  0  0  0
 14 28  2  0  0  0  0
 14 30  1  0  0  0  0
 15 17  1  0  0  0  0
 15 19  1  0  0  0  0
 16 18  1  0  0  0  0
 16 24  1  0  0  0  0
 17 29  1  0  0  0  0
 17 33  2  0  0  0  0
 18 30  1  0  0  0  0
 18 34  2  0  0  0  0
 19 20  2  0  0  0  0
 20 21  1  0  0  0  0
 21 31  1  0  0  0  0
 21 35  2  0  0  0  0
 22 24  1  0  0  0  0
 22 32  1  0  0  0  0
 22 36  2  0  0  0  0
 23 30  1  0  0  0  0
 25 26  1  0  0  0  0
 25 32  1  0  0  0  0
 26 31  1  0  0  0  0
  1 37  1  0  0  0  0
  2 38  1  0  0  0  0
  3 39  1  0  0  0  0
  4 40  1  0  0  0  0
  5 41  1  0  0  0  0
  6 42  1  0  0  0  0
  7 43  1  0  0  0  0
 11 44  1  0  0  0  0
 12 45  1  0  0  0  0
 13 46  1  0  0  0  0
 14 47  1  0  0  0  0
 19 48  1  0  0  0  0
 20 49  1  0  0  0  0
 23 50  1  0  0  0  0
 23 51  1  0  0  0  0
 23 52  1  0  0  0  0
 24 53  1  0  0  0  0
 24 54  1  0  0  0  0
 25 55  1  0  0  0  0
 25 56  1  0  0  0  0
 26 57  1  0  0  0  0
 29 58  1  0  0  0  0
 31 59  1  0  0  0  0
 32 60  1  0  0  0  0
M  END
> <FRED Chemgauss4 score>
-7.474530

$$$$
64
  -OEChem-08042116223D

 56 59  0     1  0  0  0  0  0999 V2000
  -24.2475   15.0007  -31.8238 C   0  0  0  0  0  0  0  0  0  0  0  0
  -23.5947   16.2418  -31.7797 C   0  0  0  0  0  0  0  0  0  0  0  0
  -23.7606   13.9158  -31.0929 C   0  0  0  0  0  0  0  0  0  0  0  0
  -22.4470   16.4162  -31.0026 C   0  0  0  0  0  0  0  0  0  0  0  0
  -22.6294   14.1013  -30.3150 C   0  0  0  0  0  0  0  0  0  0  0  0
  -21.9774   15.3406  -30.2639 C   0  0  0  0  0  0  0  0  0  0  0  0
  -19.7856   15.2976  -21.4270 C   0  0  0  0  0  0  0  0  0  0  0  0
  -20.5958   16.2608  -21.8642 C   0  0  0  0  0  0  0  0  0  0  0  0
  -19.9132   21.4154  -26.8180 C   0  0  0  0  0  0  0  0  0  0  0  0
  -18.8434   20.7434  -27.2679 C   0  0  0  0  0  0  0  0  0  0  0  0
  -19.6472   14.0277  -22.1644 C   0  0  0  0  0  0  0  0  0  0  0  0
  -21.3876   16.1006  -23.1028 C   0  0  0  0  0  0  0  0  0  0  0  0
  -17.5047   21.1369  -26.7603 C   0  0  0  0  0  0  0  0  0  0  0  0
  -18.7190   22.7926  -25.4759 C   0  0  0  0  0  0  0  0  0  0  0  0
  -18.9652   19.6700  -28.2140 C   0  0  0  0  0  0  0  0  0  0  0  0
  -19.6750   18.5607  -27.9713 C   0  0  0  0  0  0  0  0  0  0  0  0
  -19.7566   17.4868  -28.9997 C   0  0  0  0  0  0  0  0  0  0  0  0
  -21.0268   14.4389  -26.1284 C   0  0  0  0  0  0  0  0  0  0  0  0
  -21.9121   13.0783  -29.4894 C   0  0  0  0  0  0  0  0  0  0  0  0
  -20.7538   15.2578  -29.3954 C   0  0  2  0  0  0  0  0  0  0  0  0
  -21.0318   13.9643  -28.5865 C   0  0  1  0  0  0  0  0  0  0  0  0
  -18.5796   23.9126  -24.4860 C   0  0  0  0  0  0  0  0  0  0  0  0
  -21.9825   14.6848  -24.9890 C   0  0  0  0  0  0  0  0  0  0  0  0
  -19.8898   22.4510  -25.9167 N   0  0  0  0  0  0  0  0  0  0  0  0
  -17.5412   22.1836  -25.8574 N   0  0  0  0  0  0  0  0  0  0  0  0
  -20.3932   13.9052  -23.3084 N   0  0  0  0  0  0  0  0  0  0  0  0
  -21.2247   14.9087  -23.7492 N   0  0  0  0  0  0  0  0  0  0  0  0
  -20.5318   16.4172  -28.5762 N   0  0  0  0  0  0  0  0  0  0  0  0
  -21.7005   14.2231  -27.3273 N   0  0  0  0  0  0  0  0  0  0  0  0
  -18.8944   13.1521  -21.7434 O   0  0  0  0  0  0  0  0  0  0  0  0
  -22.1202   17.0203  -23.4641 O   0  0  0  0  0  0  0  0  0  0  0  0
  -16.4718   20.5781  -27.1164 O   0  0  0  0  0  0  0  0  0  0  0  0
  -19.1898   17.5654  -30.0849 O   0  0  0  0  0  0  0  0  0  0  0  0
  -19.8056   14.4355  -25.9974 O   0  0  0  0  0  0  0  0  0  0  0  0
  -25.1420   14.8856  -32.4293 H   0  0  0  0  0  0  0  0  0  0  0  0
  -23.9894   17.0767  -32.3524 H   0  0  0  0  0  0  0  0  0  0  0  0
  -24.2597   12.9536  -31.1362 H   0  0  0  0  0  0  0  0  0  0  0  0
  -21.9391   17.3757  -30.9797 H   0  0  0  0  0  0  0  0  0  0  0  0
  -19.2080   15.4225  -20.5181 H   0  0  0  0  0  0  0  0  0  0  0  0
  -20.6954   17.1932  -21.3197 H   0  0  0  0  0  0  0  0  0  0  0  0
  -20.9094   21.1566  -27.1662 H   0  0  0  0  0  0  0  0  0  0  0  0
  -18.4398   19.8119  -29.1537 H   0  0  0  0  0  0  0  0  0  0  0  0
  -20.1995   18.4196  -27.0312 H   0  0  0  0  0  0  0  0  0  0  0  0
  -22.6416   12.4945  -28.9110 H   0  0  0  0  0  0  0  0  0  0  0  0
  -21.3025   12.4032  -30.1034 H   0  0  0  0  0  0  0  0  0  0  0  0
  -19.8340   15.1120  -30.0145 H   0  0  0  0  0  0  0  0  0  0  0  0
  -20.1127   13.4660  -28.3608 H   0  0  0  0  0  0  0  0  0  0  0  0
  -18.6409   23.5129  -23.4768 H   0  0  0  0  0  0  0  0  0  0  0  0
  -19.3771   24.6353  -24.6422 H   0  0  0  0  0  0  0  0  0  0  0  0
  -17.6194   24.4031  -24.6276 H   0  0  0  0  0  0  0  0  0  0  0  0
  -22.5918   15.5678  -25.2032 H   0  0  0  0  0  0  0  0  0  0  0  0
  -22.6357   13.8170  -24.8589 H   0  0  0  0  0  0  0  0  0  0  0  0
  -16.6596   22.5056  -25.4685 H   0  0  0  0  0  0  0  0  0  0  0  0
  -20.3483   13.0581  -23.8663 H   0  0  0  0  0  0  0  0  0  0  0  0
  -20.9397   16.4270  -27.6433 H   0  0  0  0  0  0  0  0  0  0  0  0
  -22.7199   14.2487  -27.3190 H   0  0  0  0  0  0  0  0  0  0  0  0
  1  2  1  0  0  0  0
  1  3  2  0  0  0  0
  2  4  2  0  0  0  0
  3  5  1  0  0  0  0
  4  6  1  0  0  0  0
  5  6  2  0  0  0  0
  5 19  1  0  0  0  0
  6 20  1  0  0  0  0
  7  8  2  0  0  0  0
  7 11  1  0  0  0  0
  8 12  1  0  0  0  0
  9 10  2  0  0  0  0
  9 24  1  0  0  0  0
 10 13  1  0  0  0  0
 10 15  1  0  0  0  0
 11 26  1  0  0  0  0
 11 30  2  0  0  0  0
 12 27  1  0  0  0  0
 12 31  2  0  0  0  0
 13 25  1  0  0  0  0
 13 32  2  0  0  0  0
 14 22  1  0  0  0  0
 14 24  2  0  0  0  0
 14 25  1  0  0  0  0
 15 16  2  0  0  0  0
 16 17  1  0  0  0  0
 17 28  1  0  0  0  0
 17 33  2  0  0  0  0
 18 23  1  0  0  0  0
 18 29  1  0  0  0  0
 18 34  2  0  0  0  0
 19 21  1  0  0  0  0
 20 21  1  0  0  0  0
 20 28  1  0  0  0  0
 21 29  1  0  0  0  0
 23 27  1  0  0  0  0
 26 27  1  0  0  0  0
  1 35  1  0  0  0  0
  2 36  1  0  0  0  0
  3 37  1  0  0  0  0
  4 38  1  0  0  0  0
  7 39  1  0  0  0  0
  8 40  1  0  0  0  0
  9 41  1  0  0  0  0
 15 42  1  0  0  0  0
 16 43  1  0  0  0  0
 19 44  1  0  0  0  0
 19 45  1  0  0  0  0
 20 46  1  0  0  0  0
 21 47  1  0  0  0  0
 22 48  1  0  0  0  0
 22 49  1  0  0  0  0
 22 50  1  0  0  0  0
 23 51  1  0  0  0  0
 23 52  1  0  0  0  0
 25 53  1  0  0  0  0
 26 54  1  0  0  0  0
 28 55  1  0  0  0  0
 29 56  1  0  0  0  0
M  END
> <FRED Chemgauss4 score>
-8.547771

$$$$
61
  -OEChem-08042116223D

 58 61  0     1  0  0  0  0  0999 V2000
  -23.4945   11.8911  -29.5842 C   0  0  0  0  0  0  0  0  0  0  0  0
  -24.0685   12.8482  -28.7527 C   0  0  0  0  0  0  0  0  0  0  0  0
  -22.1488   11.9901  -29.9384 C   0  0  0  0  0  0  0  0  0  0  0  0
  -23.2988   13.9080  -28.2722 C   0  0  0  0  0  0  0  0  0  0  0  0
  -20.0029   13.1656  -29.8104 C   0  0  0  0  0  0  0  0  0  0  0  0
  -19.2333   14.2254  -29.3299 C   0  0  0  0  0  0  0  0  0  0  0  0
  -21.1530   15.0835  -28.1442 C   0  0  0  0  0  0  0  0  0  0  0  0
  -21.3590   13.0502  -29.4641 C   0  0  0  0  0  0  0  0  0  0  0  0
  -21.9427   14.0235  -28.6185 C   0  0  0  0  0  0  0  0  0  0  0  0
  -19.8072   15.1825  -28.4984 C   0  0  0  0  0  0  0  0  0  0  0  0
  -23.0345   21.0445  -31.7219 C   0  0  0  0  0  0  0  0  0  0  0  0
  -21.9843   21.7405  -31.2883 C   0  0  0  0  0  0  0  0  0  0  0  0
  -21.8757   14.6887  -21.3175 C   0  0  0  0  0  0  0  0  0  0  0  0
  -23.3918   14.9856  -19.6748 C   0  0  0  0  0  0  0  0  0  0  0  0
  -21.5585   15.9894  -21.4069 C   0  0  0  0  0  0  0  0  0  0  0  0
  -23.4290   19.7801  -31.0727 C   0  0  0  0  0  0  0  0  0  0  0  0
  -21.1722   21.2792  -30.1418 C   0  0  0  0  0  0  0  0  0  0  0  0
  -22.2508   16.9454  -20.5035 C   0  0  0  0  0  0  0  0  0  0  0  0
  -20.5786   16.4677  -22.3414 C   0  0  0  0  0  0  0  0  0  0  0  0
  -20.3418   15.8737  -23.5180 C   0  0  0  0  0  0  0  0  0  0  0  0
  -19.3087   16.4251  -24.4379 C   0  0  0  0  0  0  0  0  0  0  0  0
  -19.9575   18.4311  -28.8716 C   0  0  0  0  0  0  0  0  0  0  0  0
  -20.8141   19.5898  -28.4289 C   0  0  0  0  0  0  0  0  0  0  0  0
  -18.2654   16.0194  -26.6464 C   0  0  0  0  0  0  0  0  0  0  0  0
  -18.9827   16.3148  -27.9856 C   0  0  2  0  0  0  0  0  0  0  0  0
  -22.7965   14.1448  -20.4549 N   0  0  0  0  0  0  0  0  0  0  0  0
  -23.1647   16.3426  -19.6594 N   0  0  0  0  0  0  0  0  0  0  0  0
  -22.6586   19.3751  -30.0132 N   0  0  0  0  0  0  0  0  0  0  0  0
  -21.5777   20.1047  -29.5749 N   0  0  0  0  0  0  0  0  0  0  0  0
  -19.2010   15.6834  -25.6050 N   0  0  0  0  0  0  0  0  0  0  0  0
  -19.7802   17.5500  -27.8376 N   0  0  0  0  0  0  0  0  0  0  0  0
  -24.4011   19.1535  -31.4888 O   0  0  0  0  0  0  0  0  0  0  0  0
  -20.2131   21.9589  -29.7799 O   0  0  0  0  0  0  0  0  0  0  0  0
  -22.0235   18.1512  -20.5163 O   0  0  0  0  0  0  0  0  0  0  0  0
  -18.6430   17.4191  -24.1658 O   0  0  0  0  0  0  0  0  0  0  0  0
  -19.5017   18.3226  -30.0069 O   0  0  0  0  0  0  0  0  0  0  0  0
  -24.0945   11.0667  -29.9579 H   0  0  0  0  0  0  0  0  0  0  0  0
  -25.1163   12.7706  -28.4778 H   0  0  0  0  0  0  0  0  0  0  0  0
  -21.7213   11.2301  -30.5894 H   0  0  0  0  0  0  0  0  0  0  0  0
  -23.7686   14.6449  -27.6237 H   0  0  0  0  0  0  0  0  0  0  0  0
  -19.5334   12.4289  -30.4593 H   0  0  0  0  0  0  0  0  0  0  0  0
  -18.1858   14.2953  -29.6109 H   0  0  0  0  0  0  0  0  0  0  0  0
  -21.5896   15.8389  -27.4927 H   0  0  0  0  0  0  0  0  0  0  0  0
  -23.6252   21.3893  -32.5629 H   0  0  0  0  0  0  0  0  0  0  0  0
  -21.6968   22.6696  -31.7679 H   0  0  0  0  0  0  0  0  0  0  0  0
  -21.3906   13.9603  -21.9613 H   0  0  0  0  0  0  0  0  0  0  0  0
  -24.1477   14.6610  -18.9436 H   0  0  0  0  0  0  0  0  0  0  0  0
  -20.0314   17.3538  -22.0340 H   0  0  0  0  0  0  0  0  0  0  0  0
  -20.8891   14.9875  -23.8241 H   0  0  0  0  0  0  0  0  0  0  0  0
  -21.5097   19.2582  -27.6524 H   0  0  0  0  0  0  0  0  0  0  0  0
  -20.1810   20.3883  -28.0311 H   0  0  0  0  0  0  0  0  0  0  0  0
  -17.5831   15.1664  -26.7358 H   0  0  0  0  0  0  0  0  0  0  0  0
  -17.6802   16.8764  -26.2962 H   0  0  0  0  0  0  0  0  0  0  0  0
  -18.1904   16.5593  -28.7186 H   0  0  0  0  0  0  0  0  0  0  0  0
  -23.6836   16.9242  -19.0081 H   0  0  0  0  0  0  0  0  0  0  0  0
  -22.8714   18.5142  -29.5189 H   0  0  0  0  0  0  0  0  0  0  0  0
  -19.7760   14.8528  -25.7310 H   0  0  0  0  0  0  0  0  0  0  0  0
  -20.2048   17.7495  -26.9530 H   0  0  0  0  0  0  0  0  0  0  0  0
  1  2  1  0  0  0  0
  1  3  2  0  0  0  0
  2  4  2  0  0  0  0
  3  8  1  0  0  0  0
  4  9  1  0  0  0  0
  5  6  2  0  0  0  0
  5  8  1  0  0  0  0
  6 10  1  0  0  0  0
  7  9  1  0  0  0  0
  7 10  2  0  0  0  0
  8  9  2  0  0  0  0
 10 25  1  0  0  0  0
 11 12  2  0  0  0  0
 11 16  1  0  0  0  0
 12 17  1  0  0  0  0
 13 15  2  0  0  0  0
 13 26  1  0  0  0  0
 14 26  2  0  0  0  0
 14 27  1  0  0  0  0
 15 18  1  0  0  0  0
 15 19  1  0  0  0  0
 16 28  1  0  0  0  0
 16 32  2  0  0  0  0
 17 29  1  0  0  0  0
 17 33  2  0  0  0  0
 18 27  1  0  0  0  0
 18 34  2  0  0  0  0
 19 20  2  0  0  0  0
 20 21  1  0  0  0  0
 21 30  1  0  0  0  0
 21 35  2  0  0  0  0
 22 23  1  0  0  0  0
 22 31  1  0  0  0  0
 22 36  2  0  0  0  0
 23 29  1  0  0  0  0
 24 25  1  0  0  0  0
 24 30  1  0  0  0  0
 25 31  1  0  0  0  0
 28 29  1  0  0  0  0
  1 37  1  0  0  0  0
  2 38  1  0  0  0  0
  3 39  1  0  0  0  0
  4 40  1  0  0  0  0
  5 41  1  0  0  0  0
  6 42  1  0  0  0  0
  7 43  1  0  0  0  0
 11 44  1  0  0  0  0
 12 45  1  0  0  0  0
 13 46  1  0  0  0  0
 14 47  1  0  0  0  0
 19 48  1  0  0  0  0
 20 49  1  0  0  0  0
 23 50  1  0  0  0  0
 23 51  1  0  0  0  0
 24 52  1  0  0  0  0
 24 53  1  0  0  0  0
 25 54  1  0  0  0  0
 27 55  1  0  0  0  0
 28 56  1  0  0  0  0
 30 57  1  0  0  0  0
 31 58  1  0  0  0  0
M  END
> <FRED Chemgauss4 score>
-1.414068

$$$$
11
  -OEChem-08042116223D

 59 62  0     1  0  0  0  0  0999 V2000
  -23.6270   13.0484  -32.0588 C   0  0  0  0  0  0  0  0  0  0  0  0
  -23.2933   12.2612  -30.9464 C   0  0  0  0  0  0  0  0  0  0  0  0
  -23.2539   14.3921  -32.1160 C   0  0  0  0  0  0  0  0  0  0  0  0
  -22.5816   12.8062  -29.8747 C   0  0  0  0  0  0  0  0  0  0  0  0
  -22.5371   14.9209  -31.0550 C   0  0  0  0  0  0  0  0  0  0  0  0
  -22.2010   14.1376  -29.9416 C   0  0  0  0  0  0  0  0  0  0  0  0
  -21.8993   14.3337  -21.0048 C   0  0  0  0  0  0  0  0  0  0  0  0
  -22.3085   15.4724  -21.5759 C   0  0  0  0  0  0  0  0  0  0  0  0
  -20.8732   13.5292  -21.6109 C   0  0  0  0  0  0  0  0  0  0  0  0
  -19.4787   21.1181  -25.7691 C   0  0  0  0  0  0  0  0  0  0  0  0
  -20.3180   13.9212  -22.7628 C   0  0  0  0  0  0  0  0  0  0  0  0
  -18.4036   20.6296  -26.4048 C   0  0  0  0  0  0  0  0  0  0  0  0
  -21.6999   15.9248  -22.8641 C   0  0  0  0  0  0  0  0  0  0  0  0
  -17.1384   21.4036  -26.3376 C   0  0  0  0  0  0  0  0  0  0  0  0
  -18.4167   22.9602  -24.9927 C   0  0  0  0  0  0  0  0  0  0  0  0
  -18.4516   19.3946  -27.1361 C   0  0  0  0  0  0  0  0  0  0  0  0
  -19.5609   18.9449  -27.7364 C   0  0  0  0  0  0  0  0  0  0  0  0
  -19.5374   17.6535  -28.4774 C   0  0  0  0  0  0  0  0  0  0  0  0
  -20.5932   14.6007  -25.7651 C   0  0  0  0  0  0  0  0  0  0  0  0
  -22.0653   16.3323  -30.8844 C   0  0  0  0  0  0  0  0  0  0  0  0
  -21.4730   14.9642  -28.9145 C   0  0  2  0  0  0  0  0  0  0  0  0
  -20.9974   16.1472  -29.7918 C   0  0  2  0  0  0  0  0  0  0  0  0
  -18.3546   24.2521  -24.2305 C   0  0  0  0  0  0  0  0  0  0  0  0
  -20.0649   15.4650  -24.6488 C   0  0  0  0  0  0  0  0  0  0  0  0
  -20.3206   14.2533  -28.2184 C   0  0  0  0  0  0  0  0  0  0  0  0
  -19.5232   22.2862  -25.0488 N   0  0  0  0  0  0  0  0  0  0  0  0
  -17.2415   22.5693  -25.6008 N   0  0  0  0  0  0  0  0  0  0  0  0
  -20.7126   15.0876  -23.3841 N   0  0  0  0  0  0  0  0  0  0  0  0
  -20.7718   17.3468  -29.0331 N   0  0  0  0  0  0  0  0  0  0  0  0
  -20.0078   14.9157  -26.9953 N   0  0  0  0  0  0  0  0  0  0  0  0
  -22.0955   16.9742  -23.3693 O   0  0  0  0  0  0  0  0  0  0  0  0
  -16.1062   21.0330  -26.8882 O   0  0  0  0  0  0  0  0  0  0  0  0
  -18.5294   16.9597  -28.5662 O   0  0  0  0  0  0  0  0  0  0  0  0
  -21.4371   13.7240  -25.5994 O   0  0  0  0  0  0  0  0  0  0  0  0
  -24.1864   12.6082  -32.8797 H   0  0  0  0  0  0  0  0  0  0  0  0
  -23.5987   11.2188  -30.9157 H   0  0  0  0  0  0  0  0  0  0  0  0
  -23.5227   15.0026  -32.9714 H   0  0  0  0  0  0  0  0  0  0  0  0
  -22.3438   12.1933  -29.0121 H   0  0  0  0  0  0  0  0  0  0  0  0
  -22.3316   13.9928  -20.0708 H   0  0  0  0  0  0  0  0  0  0  0  0
  -23.0798   16.0888  -21.1296 H   0  0  0  0  0  0  0  0  0  0  0  0
  -20.5665   12.6143  -21.1179 H   0  0  0  0  0  0  0  0  0  0  0  0
  -20.4225   20.5802  -25.7952 H   0  0  0  0  0  0  0  0  0  0  0  0
  -19.5420   13.3374  -23.2452 H   0  0  0  0  0  0  0  0  0  0  0  0
  -17.5207   18.8368  -27.1750 H   0  0  0  0  0  0  0  0  0  0  0  0
  -20.4912   19.5031  -27.6964 H   0  0  0  0  0  0  0  0  0  0  0  0
  -21.6317   16.7394  -31.8026 H   0  0  0  0  0  0  0  0  0  0  0  0
  -22.8976   16.9607  -30.5488 H   0  0  0  0  0  0  0  0  0  0  0  0
  -22.2057   15.3057  -28.1709 H   0  0  0  0  0  0  0  0  0  0  0  0
  -20.0389   15.8977  -30.2702 H   0  0  0  0  0  0  0  0  0  0  0  0
  -18.0705   24.0509  -23.2006 H   0  0  0  0  0  0  0  0  0  0  0  0
  -19.3295   24.7333  -24.2536 H   0  0  0  0  0  0  0  0  0  0  0  0
  -17.6203   24.9088  -24.6910 H   0  0  0  0  0  0  0  0  0  0  0  0
  -18.9838   15.3259  -24.5552 H   0  0  0  0  0  0  0  0  0  0  0  0
  -20.2777   16.5167  -24.8615 H   0  0  0  0  0  0  0  0  0  0  0  0
  -20.6369   13.2281  -28.0261 H   0  0  0  0  0  0  0  0  0  0  0  0
  -19.4654   14.2774  -28.8939 H   0  0  0  0  0  0  0  0  0  0  0  0
  -16.4123   23.1496  -25.5125 H   0  0  0  0  0  0  0  0  0  0  0  0
  -21.5621   17.9717  -28.8801 H   0  0  0  0  0  0  0  0  0  0  0  0
  -19.3120   15.6681  -27.0192 H   0  0  0  0  0  0  0  0  0  0  0  0
  1  2  1  0  0  0  0
  1  3  2  0  0  0  0
  2  4  2  0  0  0  0
  3  5  1  0  0  0  0
  4  6  1  0  0  0  0
  5  6  2  0  0  0  0
  5 20  1  0  0  0  0
  6 21  1  0  0  0  0
  7  8  2  0  0  0  0
  7  9  1  0  0  0  0
  8 13  1  0  0  0  0
  9 11  2  0  0  0  0
 10 12  2  0  0  0  0
 10 26  1  0  0  0  0
 11 28  1  0  0  0  0
 12 14  1  0  0  0  0
 12 16  1  0  0  0  0
 13 28  1  0  0  0  0
 13 31  2  0  0  0  0
 14 27  1  0  0  0  0
 14 32  2  0  0  0  0
 15 23  1  0  0  0  0
 15 26  2  0  0  0  0
 15 27  1  0  0  0  0
 16 17  2  0  0  0  0
 17 18  1  0  0  0  0
 18 29  1  0  0  0  0
 18 33  2  0  0  0  0
 19 24  1  0  0  0  0
 19 30  1  0  0  0  0
 19 34  2  0  0  0  0
 20 22  1  0  0  0  0
 21 22  1  0  0  0  0
 21 25  1  0  0  0  0
 22 29  1  0  0  0  0
 24 28  1  0  0  0  0
 25 30  1  0  0  0  0
  1 35  1  0  0  0  0
  2 36  1  0  0  0  0
  3 37  1  0  0  0  0
  4 38  1  0  0  0  0
  7 39  1  0  0  0  0
  8 40  1  0  0  0  0
  9 41  1  0  0  0  0
 10 42  1  0  0  0  0
 11 43  1  0  0  0  0
 16 44  1  0  0  0  0
 17 45  1  0  0  0  0
 20 46  1  0  0  0  0
 20 47  1  0  0  0  0
 21 48  1  0  0  0  0
 22 49  1  0  0  0  0
 23 50  1  0  0  0  0
 23 51  1  0  0  0  0
 23 52  1  0  0  0  0
 24 53  1  0  0  0  0
 24 54  1  0  0  0  0
 25 55  1  0  0  0  0
 25 56  1  0  0  0  0
 27 57  1  0  0  0  0
 29 58  1  0  0  0  0
 30 59  1  0  0  0  0
M  END
> <FRED Chemgauss4 score>
-7.740563

$$$$
58
  -OEChem-08042116223D

 55 58  0     1  0  0  0  0  0999 V2000
  -20.5069   13.7308  -29.5174 C   0  0  0  0  0  0  0  0  0  0  0  0
  -20.4774   13.3899  -28.1568 C   0  0  0  0  0  0  0  0  0  0  0  0
  -21.0829   14.9311  -29.9366 C   0  0  0  0  0  0  0  0  0  0  0  0
  -21.0219   14.2452  -27.1959 C   0  0  0  0  0  0  0  0  0  0  0  0
  -21.6088   15.7791  -28.9756 C   0  0  0  0  0  0  0  0  0  0  0  0
  -21.5768   15.4449  -27.6151 C   0  0  0  0  0  0  0  0  0  0  0  0
  -22.8667   16.7551  -20.0262 C   0  0  0  0  0  0  0  0  0  0  0  0
  -22.7197   15.3287  -19.9350 C   0  0  0  0  0  0  0  0  0  0  0  0
  -17.1064   21.4166  -26.4228 C   0  0  0  0  0  0  0  0  0  0  0  0
  -22.4117   17.3997  -21.1037 C   0  0  0  0  0  0  0  0  0  0  0  0
  -15.7862   23.0871  -25.6802 C   0  0  0  0  0  0  0  0  0  0  0  0
  -18.1678   21.7845  -25.6889 C   0  0  0  0  0  0  0  0  0  0  0  0
  -22.1343   14.6095  -20.9058 C   0  0  0  0  0  0  0  0  0  0  0  0
  -18.0375   22.9794  -24.8145 C   0  0  0  0  0  0  0  0  0  0  0  0
  -21.6185   15.3346  -22.1268 C   0  0  0  0  0  0  0  0  0  0  0  0
  -19.4067   21.0596  -25.7321 C   0  0  0  0  0  0  0  0  0  0  0  0
  -19.8285   20.4003  -26.8187 C   0  0  0  0  0  0  0  0  0  0  0  0
  -21.1260   19.6700  -26.7917 C   0  0  0  0  0  0  0  0  0  0  0  0
  -22.2689   17.3243  -24.4436 C   0  0  0  0  0  0  0  0  0  0  0  0
  -22.3068   17.0857  -29.1954 C   0  0  0  0  0  0  0  0  0  0  0  0
  -22.2582   16.5042  -26.7953 C   0  0  2  0  0  0  0  0  0  0  0  0
  -22.2756   17.7002  -27.7823 C   0  0  1  0  0  0  0  0  0  0  0  0
  -21.3340   17.5166  -23.2770 C   0  0  0  0  0  0  0  0  0  0  0  0
  -15.8874   22.0499  -26.4445 N   0  0  0  0  0  0  0  0  0  0  0  0
  -16.7913   23.5746  -24.8769 N   0  0  0  0  0  0  0  0  0  0  0  0
  -21.8014   16.7191  -22.1337 N   0  0  0  0  0  0  0  0  0  0  0  0
  -21.9626   13.2568  -20.8834 N   0  0  0  0  0  0  0  0  0  0  0  0
  -21.1234   18.5663  -27.6341 N   0  0  0  0  0  0  0  0  0  0  0  0
  -21.6089   16.7928  -25.5464 N   0  0  0  0  0  0  0  0  0  0  0  0
  -18.9557   23.3873  -24.1099 O   0  0  0  0  0  0  0  0  0  0  0  0
  -21.0785   14.6927  -23.0288 O   0  0  0  0  0  0  0  0  0  0  0  0
  -22.0726   20.0281  -26.0982 O   0  0  0  0  0  0  0  0  0  0  0  0
  -23.4639   17.6057  -24.4056 O   0  0  0  0  0  0  0  0  0  0  0  0
  -20.0734   13.0555  -30.2498 H   0  0  0  0  0  0  0  0  0  0  0  0
  -20.0220   12.4529  -27.8477 H   0  0  0  0  0  0  0  0  0  0  0  0
  -21.1150   15.1888  -30.9899 H   0  0  0  0  0  0  0  0  0  0  0  0
  -21.0061   13.9725  -26.1449 H   0  0  0  0  0  0  0  0  0  0  0  0
  -23.3478   17.2844  -19.2122 H   0  0  0  0  0  0  0  0  0  0  0  0
  -23.1051   14.8490  -19.0406 H   0  0  0  0  0  0  0  0  0  0  0  0
  -17.1640   20.5486  -27.0738 H   0  0  0  0  0  0  0  0  0  0  0  0
  -22.5070   18.4752  -21.2030 H   0  0  0  0  0  0  0  0  0  0  0  0
  -14.8556   23.6716  -25.6185 H   0  0  0  0  0  0  0  0  0  0  0  0
  -19.9918   21.0771  -24.8175 H   0  0  0  0  0  0  0  0  0  0  0  0
  -19.2429   20.3839  -27.7327 H   0  0  0  0  0  0  0  0  0  0  0  0
  -21.7416   17.6877  -29.9205 H   0  0  0  0  0  0  0  0  0  0  0  0
  -23.3366   16.9513  -29.5500 H   0  0  0  0  0  0  0  0  0  0  0  0
  -23.3106   16.2098  -26.5581 H   0  0  0  0  0  0  0  0  0  0  0  0
  -23.1460   18.2999  -27.6195 H   0  0  0  0  0  0  0  0  0  0  0  0
  -20.3268   17.1921  -23.5546 H   0  0  0  0  0  0  0  0  0  0  0  0
  -21.3088   18.5724  -22.9920 H   0  0  0  0  0  0  0  0  0  0  0  0
  -16.6160   24.3986  -24.3094 H   0  0  0  0  0  0  0  0  0  0  0  0
  -22.2913   12.7466  -20.0924 H   0  0  0  0  0  0  0  0  0  0  0  0
  -21.5137   12.8191  -21.6586 H   0  0  0  0  0  0  0  0  0  0  0  0
  -20.2972   18.3649  -28.1961 H   0  0  0  0  0  0  0  0  0  0  0  0
  -20.6125   16.5977  -25.4644 H   0  0  0  0  0  0  0  0  0  0  0  0
  1  2  1  0  0  0  0
  1  3  2  0  0  0  0
  2  4  2  0  0  0  0
  3  5  1  0  0  0  0
  4  6  1  0  0  0  0
  5  6  2  0  0  0  0
  5 20  1  0  0  0  0
  6 21  1  0  0  0  0
  7  8  1  0  0  0  0
  7 10  2  0  0  0  0
  8 13  2  0  0  0  0
  9 12  2  0  0  0  0
  9 24  1  0  0  0  0
 10 26  1  0  0  0  0
 11 24  2  0  0  0  0
 11 25  1  0  0  0  0
 12 14  1  0  0  0  0
 12 16  1  0  0  0  0
 13 15  1  0  0  0  0
 13 27  1  0  0  0  0
 14 25  1  0  0  0  0
 14 30  2  0  0  0  0
 15 26  1  0  0  0  0
 15 31  2  0  0  0  0
 16 17  2  0  0  0  0
 17 18  1  0  0  0  0
 18 28  1  0  0  0  0
 18 32  2  0  0  0  0
 19 23  1  0  0  0  0
 19 29  1  0  0  0  0
 19 33  2  0  0  0  0
 20 22  1  0  0  0  0
 21 22  1  0  0  0  0
 21 29  1  0  0  0  0
 22 28  1  0  0  0  0
 23 26  1  0  0  0  0
  1 34  1  0  0  0  0
  2 35  1  0  0  0  0
  3 36  1  0  0  0  0
  4 37  1  0  0  0  0
  7 38  1  0  0  0  0
  8 39  1  0  0  0  0
  9 40  1  0  0  0  0
 10 41  1  0  0  0  0
 11 42  1  0  0  0  0
 16 43  1  0  0  0  0
 17 44  1  0  0  0  0
 20 45  1  0  0  0  0
 20 46  1  0  0  0  0
 21 47  1  0  0  0  0
 22 48  1  0  0  0  0
 23 49  1  0  0  0  0
 23 50  1  0  0  0  0
 25 51  1  0  0  0  0
 27 52  1  0  0  0  0
 27 53  1  0  0  0  0
 28 54  1  0  0  0  0
 29 55  1  0  0  0  0
M  END
> <FRED Chemgauss4 score>
-8.964788

$$$$
62
  -OEChem-08042116223D

 55 58  0     1  0  0  0  0  0999 V2000
  -17.0779   23.6972  -25.1432 C   0  0  0  0  0  0  0  0  0  0  0  0
  -18.2569   23.6797  -24.4040 C   0  0  0  0  0  0  0  0  0  0  0  0
  -16.8418   22.7145  -26.1050 C   0  0  0  0  0  0  0  0  0  0  0  0
  -19.2044   22.6795  -24.6238 C   0  0  0  0  0  0  0  0  0  0  0  0
  -17.5633   20.7033  -27.3036 C   0  0  0  0  0  0  0  0  0  0  0  0
  -18.5107   19.7031  -27.5234 C   0  0  0  0  0  0  0  0  0  0  0  0
  -19.9260   20.6682  -25.8224 C   0  0  0  0  0  0  0  0  0  0  0  0
  -17.7844   21.7003  -26.3396 C   0  0  0  0  0  0  0  0  0  0  0  0
  -18.9834   21.6825  -25.5879 C   0  0  0  0  0  0  0  0  0  0  0  0
  -19.6898   19.6855  -26.7843 C   0  0  0  0  0  0  0  0  0  0  0  0
  -21.6498   13.0285  -29.5231 C   0  0  0  0  0  0  0  0  0  0  0  0
  -21.9060   13.5309  -30.7303 C   0  0  0  0  0  0  0  0  0  0  0  0
  -20.1816   14.7354  -24.1811 C   0  0  0  0  0  0  0  0  0  0  0  0
  -20.8972   15.8051  -24.5399 C   0  0  0  0  0  0  0  0  0  0  0  0
  -22.0840   13.7296  -28.3002 C   0  0  0  0  0  0  0  0  0  0  0  0
  -22.6347   14.8069  -30.8969 C   0  0  0  0  0  0  0  0  0  0  0  0
  -20.4475   14.1091  -22.8629 C   0  0  0  0  0  0  0  0  0  0  0  0
  -22.1918   15.8394  -22.4931 C   0  0  0  0  0  0  0  0  0  0  0  0
  -20.6344   16.4293  -25.8495 C   0  0  0  0  0  0  0  0  0  0  0  0
  -22.8261   17.8281  -29.4700 C   0  0  0  0  0  0  0  0  0  0  0  0
  -23.7458   16.6895  -29.8304 C   0  0  0  0  0  0  0  0  0  0  0  0
  -22.0811   19.1408  -27.4861 C   0  0  0  0  0  0  0  0  0  0  0  0
  -20.7017   18.6155  -27.0209 C   0  0  2  0  0  0  0  0  0  0  0  0
  -21.8669   16.3494  -23.7424 N   0  0  0  0  0  0  0  0  0  0  0  0
  -21.4450   14.7199  -22.1146 N   0  0  0  0  0  0  0  0  0  0  0  0
  -22.7564   14.9105  -28.4833 N   0  0  0  0  0  0  0  0  0  0  0  0
  -23.0156   15.4168  -29.7360 N   0  0  0  0  0  0  0  0  0  0  0  0
  -20.8922   17.7678  -25.8255 N   0  0  0  0  0  0  0  0  0  0  0  0
  -22.8629   18.1038  -28.1075 N   0  0  0  0  0  0  0  0  0  0  0  0
  -21.8370   13.2488  -27.1963 O   0  0  0  0  0  0  0  0  0  0  0  0
  -22.8468   15.2271  -32.0333 O   0  0  0  0  0  0  0  0  0  0  0  0
  -19.8110   13.1256  -22.4961 O   0  0  0  0  0  0  0  0  0  0  0  0
  -23.0645   16.3302  -21.7763 O   0  0  0  0  0  0  0  0  0  0  0  0
  -20.2328   15.7568  -26.7928 O   0  0  0  0  0  0  0  0  0  0  0  0
  -22.1352   18.4247  -30.2916 O   0  0  0  0  0  0  0  0  0  0  0  0
  -16.3408   24.4759  -24.9711 H   0  0  0  0  0  0  0  0  0  0  0  0
  -18.4397   24.4447  -23.6551 H   0  0  0  0  0  0  0  0  0  0  0  0
  -15.9131   22.7484  -26.6711 H   0  0  0  0  0  0  0  0  0  0  0  0
  -20.1189   22.6853  -24.0341 H   0  0  0  0  0  0  0  0  0  0  0  0
  -16.6485   20.6973  -27.8930 H   0  0  0  0  0  0  0  0  0  0  0  0
  -18.3189   18.9412  -28.2744 H   0  0  0  0  0  0  0  0  0  0  0  0
  -20.8527   20.6431  -25.2512 H   0  0  0  0  0  0  0  0  0  0  0  0
  -21.1152   12.0923  -29.4090 H   0  0  0  0  0  0  0  0  0  0  0  0
  -21.5852   13.0131  -31.6275 H   0  0  0  0  0  0  0  0  0  0  0  0
  -19.4117   14.2968  -24.8053 H   0  0  0  0  0  0  0  0  0  0  0  0
  -24.5950   16.6694  -29.1410 H   0  0  0  0  0  0  0  0  0  0  0  0
  -24.1123   16.8182  -30.8530 H   0  0  0  0  0  0  0  0  0  0  0  0
  -22.6747   19.5121  -26.6429 H   0  0  0  0  0  0  0  0  0  0  0  0
  -21.9867   19.9574  -28.2098 H   0  0  0  0  0  0  0  0  0  0  0  0
  -20.3420   17.9329  -27.8143 H   0  0  0  0  0  0  0  0  0  0  0  0
  -22.3705   17.1639  -24.0816 H   0  0  0  0  0  0  0  0  0  0  0  0
  -21.6528   14.3150  -21.2061 H   0  0  0  0  0  0  0  0  0  0  0  0
  -23.0846   15.4471  -27.6863 H   0  0  0  0  0  0  0  0  0  0  0  0
  -21.2187   18.1871  -24.9766 H   0  0  0  0  0  0  0  0  0  0  0  0
  -23.4753   17.5426  -27.5181 H   0  0  0  0  0  0  0  0  0  0  0  0
  1  2  1  0  0  0  0
  1  3  2  0  0  0  0
  2  4  2  0  0  0  0
  3  8  1  0  0  0  0
  4  9  1  0  0  0  0
  5  6  2  0  0  0  0
  5  8  1  0  0  0  0
  6 10  1  0  0  0  0
  7  9  1  0  0  0  0
  7 10  2  0  0  0  0
  8  9  2  0  0  0  0
 10 23  1  0  0  0  0
 11 12  2  0  0  0  0
 11 15  1  0  0  0  0
 12 16  1  0  0  0  0
 13 14  2  0  0  0  0
 13 17  1  0  0  0  0
 14 19  1  0  0  0  0
 14 24  1  0  0  0  0
 15 26  1  0  0  0  0
 15 30  2  0  0  0  0
 16 27  1  0  0  0  0
 16 31  2  0  0  0  0
 17 25  1  0  0  0  0
 17 32  2  0  0  0  0
 18 24  1  0  0  0  0
 18 25  1  0  0  0  0
 18 33  2  0  0  0  0
 19 28  1  0  0  0  0
 19 34  2  0  0  0  0
 20 21  1  0  0  0  0
 20 29  1  0  0  0  0
 20 35  2  0  0  0  0
 21 27  1  0  0  0  0
 22 23  1  0  0  0  0
 22 29  1  0  0  0  0
 23 28  1  0  0  0  0
 26 27  1  0  0  0  0
  1 36  1  0  0  0  0
  2 37  1  0  0  0  0
  3 38  1  0  0  0  0
  4 39  1  0  0  0  0
  5 40  1  0  0  0  0
  6 41  1  0  0  0  0
  7 42  1  0  0  0  0
 11 43  1  0  0  0  0
 12 44  1  0  0  0  0
 13 45  1  0  0  0  0
 21 46  1  0  0  0  0
 21 47  1  0  0  0  0
 22 48  1  0  0  0  0
 22 49  1  0  0  0  0
 23 50  1  0  0  0  0
 24 51  1  0  0  0  0
 25 52  1  0  0  0  0
 26 53  1  0  0  0  0
 28 54  1  0  0  0  0
 29 55  1  0  0  0  0
M  END
> <FRED Chemgauss4 score>
-6.874706

$$$$
27
  -OEChem-08042116223D

 54 57  0     1  0  0  0  0  0999 V2000
  -25.9208   18.5441  -31.9094 C   0  0  0  0  0  0  0  0  0  0  0  0
  -24.9177   18.3288  -32.8498 C   0  0  0  0  0  0  0  0  0  0  0  0
  -25.6069   18.5870  -30.5507 C   0  0  0  0  0  0  0  0  0  0  0  0
  -23.5969   18.1556  -32.4351 C   0  0  0  0  0  0  0  0  0  0  0  0
  -23.9489   18.4550  -28.7518 C   0  0  0  0  0  0  0  0  0  0  0  0
  -22.6281   18.2817  -28.3370 C   0  0  0  0  0  0  0  0  0  0  0  0
  -21.9388   18.0234  -30.6362 C   0  0  0  0  0  0  0  0  0  0  0  0
  -24.2829   18.4147  -30.1153 C   0  0  0  0  0  0  0  0  0  0  0  0
  -23.2629   18.1957  -31.0716 C   0  0  0  0  0  0  0  0  0  0  0  0
  -21.6250   18.0663  -29.2774 C   0  0  0  0  0  0  0  0  0  0  0  0
  -20.3686   15.2637  -21.2874 C   0  0  0  0  0  0  0  0  0  0  0  0
  -20.8447   16.3626  -21.8715 C   0  0  0  0  0  0  0  0  0  0  0  0
  -18.7754   21.8096  -26.3514 C   0  0  0  0  0  0  0  0  0  0  0  0
  -19.2844   20.3135  -24.1419 C   0  0  0  0  0  0  0  0  0  0  0  0
  -19.2273   20.5479  -26.3807 C   0  0  0  0  0  0  0  0  0  0  0  0
  -20.2032   14.0101  -22.0468 C   0  0  0  0  0  0  0  0  0  0  0  0
  -21.2255   16.3745  -23.3004 C   0  0  0  0  0  0  0  0  0  0  0  0
  -18.5367   22.4306  -25.0250 C   0  0  0  0  0  0  0  0  0  0  0  0
  -19.4529   19.9622  -27.7148 C   0  0  0  0  0  0  0  0  0  0  0  0
  -20.3562   15.8369  -26.1996 C   0  0  0  0  0  0  0  0  0  0  0  0
  -21.4117   15.1343  -25.3845 C   0  0  0  0  0  0  0  0  0  0  0  0
  -19.8216   16.4081  -28.5664 C   0  0  0  0  0  0  0  0  0  0  0  0
  -20.2135   17.8815  -28.8321 C   0  0  2  0  0  0  0  0  0  0  0  0
  -19.4963   19.7593  -25.2902 N   0  0  0  0  0  0  0  0  0  0  0  0
  -18.8227   21.5973  -23.9607 N   0  0  0  0  0  0  0  0  0  0  0  0
  -20.5647   14.0486  -23.3690 N   0  0  0  0  0  0  0  0  0  0  0  0
  -21.0535   15.1910  -23.9597 N   0  0  0  0  0  0  0  0  0  0  0  0
  -19.9103   18.6809  -27.6268 N   0  0  0  0  0  0  0  0  0  0  0  0
  -20.6560   15.8098  -27.5572 N   0  0  0  0  0  0  0  0  0  0  0  0
  -19.7625   13.0076  -21.4887 O   0  0  0  0  0  0  0  0  0  0  0  0
  -21.6590   17.4152  -23.7921 O   0  0  0  0  0  0  0  0  0  0  0  0
  -18.1223   23.5806  -24.9269 O   0  0  0  0  0  0  0  0  0  0  0  0
  -19.2334   20.6152  -28.7291 O   0  0  0  0  0  0  0  0  0  0  0  0
  -19.3624   16.3647  -25.7075 O   0  0  0  0  0  0  0  0  0  0  0  0
  -26.9486   18.6785  -32.2331 H   0  0  0  0  0  0  0  0  0  0  0  0
  -25.1629   18.2950  -33.9072 H   0  0  0  0  0  0  0  0  0  0  0  0
  -26.4075   18.7571  -29.8335 H   0  0  0  0  0  0  0  0  0  0  0  0
  -22.8291   17.9882  -33.1878 H   0  0  0  0  0  0  0  0  0  0  0  0
  -24.7169   18.6218  -27.9991 H   0  0  0  0  0  0  0  0  0  0  0  0
  -22.3923   18.3163  -27.2767 H   0  0  0  0  0  0  0  0  0  0  0  0
  -21.1445   17.8544  -31.3616 H   0  0  0  0  0  0  0  0  0  0  0  0
  -20.0913   15.2628  -20.2394 H   0  0  0  0  0  0  0  0  0  0  0  0
  -20.9653   17.2826  -21.3103 H   0  0  0  0  0  0  0  0  0  0  0  0
  -18.5742   22.4014  -27.2364 H   0  0  0  0  0  0  0  0  0  0  0  0
  -19.4653   19.7767  -23.1983 H   0  0  0  0  0  0  0  0  0  0  0  0
  -22.3785   15.6244  -25.5325 H   0  0  0  0  0  0  0  0  0  0  0  0
  -21.4847   14.0880  -25.6951 H   0  0  0  0  0  0  0  0  0  0  0  0
  -19.9363   15.7935  -29.4665 H   0  0  0  0  0  0  0  0  0  0  0  0
  -18.7834   16.3135  -28.2307 H   0  0  0  0  0  0  0  0  0  0  0  0
  -19.5252   18.2530  -29.6152 H   0  0  0  0  0  0  0  0  0  0  0  0
  -18.6880   21.9430  -23.0152 H   0  0  0  0  0  0  0  0  0  0  0  0
  -20.4782   13.2223  -23.9526 H   0  0  0  0  0  0  0  0  0  0  0  0
  -20.0443   18.2712  -26.7228 H   0  0  0  0  0  0  0  0  0  0  0  0
  -21.5108   15.3419  -27.8532 H   0  0  0  0  0  0  0  0  0  0  0  0
  1  2  1  0  0  0  0
  1  3  2  0  0  0  0
  2  4  2  0  0  0  0
  3  8  1  0  0  0  0
  4  9  1  0  0  0  0
  5  6  2  0  0  0  0
  5  8  1  0  0  0  0
  6 10  1  0  0  0  0
  7  9  1  0  0  0  0
  7 10  2  0  0  0  0
  8  9  2  0  0  0  0
 10 23  1  0  0  0  0
 11 12  2  0  0  0  0
 11 16  1  0  0  0  0
 12 17  1  0  0  0  0
 13 15  2  0  0  0  0
 13 18  1  0  0  0  0
 14 24  2  0  0  0  0
 14 25  1  0  0  0  0
 15 19  1  0  0  0  0
 15 24  1  0  0  0  0
 16 26  1  0  0  0  0
 16 30  2  0  0  0  0
 17 27  1  0  0  0  0
 17 31  2  0  0  0  0
 18 25  1  0  0  0  0
 18 32  2  0  0  0  0
 19 28  1  0  0  0  0
 19 33  2  0  0  0  0
 20 21  1  0  0  0  0
 20 29  1  0  0  0  0
 20 34  2  0  0  0  0
 21 27  1  0  0  0  0
 22 23  1  0  0  0  0
 22 29  1  0  0  0  0
 23 28  1  0  0  0  0
 26 27  1  0  0  0  0
  1 35  1  0  0  0  0
  2 36  1  0  0  0  0
  3 37  1  0  0  0  0
  4 38  1  0  0  0  0
  5 39  1  0  0  0  0
  6 40  1  0  0  0  0
  7 41  1  0  0  0  0
 11 42  1  0  0  0  0
 12 43  1  0  0  0  0
 13 44  1  0  0  0  0
 14 45  1  0  0  0  0
 21 46  1  0  0  0  0
 21 47  1  0  0  0  0
 22 48  1  0  0  0  0
 22 49  1  0  0  0  0
 23 50  1  0  0  0  0
 25 51  1  0  0  0  0
 26 52  1  0  0  0  0
 28 53  1  0  0  0  0
 29 54  1  0  0  0  0
M  END
> <FRED Chemgauss4 score>
-5.616687

$$$$
46
  -OEChem-08042116223D

 56 59  0     1  0  0  0  0  0999 V2000
  -25.6606   20.4474  -32.1491 C   0  0  0  0  0  0  0  0  0  0  0  0
  -24.3456   20.8461  -32.4366 C   0  0  0  0  0  0  0  0  0  0  0  0
  -25.9109   19.4324  -31.2232 C   0  0  0  0  0  0  0  0  0  0  0  0
  -23.2616   20.2365  -31.8015 C   0  0  0  0  0  0  0  0  0  0  0  0
  -24.8300   18.8247  -30.6068 C   0  0  0  0  0  0  0  0  0  0  0  0
  -23.5172   19.2254  -30.8890 C   0  0  0  0  0  0  0  0  0  0  0  0
  -20.1330   14.5314  -24.4732 C   0  0  0  0  0  0  0  0  0  0  0  0
  -18.3108   22.4713  -28.7594 C   0  0  0  0  0  0  0  0  0  0  0  0
  -19.3886   21.7432  -28.4669 C   0  0  0  0  0  0  0  0  0  0  0  0
  -21.0088   15.5085  -24.7501 C   0  0  0  0  0  0  0  0  0  0  0  0
  -21.6939   16.1775  -23.6155 C   0  0  0  0  0  0  0  0  0  0  0  0
  -16.9534   21.2796  -27.1604 C   0  0  0  0  0  0  0  0  0  0  0  0
  -18.1730   20.4462  -26.8213 C   0  0  0  0  0  0  0  0  0  0  0  0
  -20.4031   14.6676  -22.2299 C   0  0  0  0  0  0  0  0  0  0  0  0
  -21.2918   15.9131  -26.0987 C   0  0  0  0  0  0  0  0  0  0  0  0
  -21.7894   15.0795  -27.0211 C   0  0  0  0  0  0  0  0  0  0  0  0
  -22.0577   15.5685  -28.4018 C   0  0  0  0  0  0  0  0  0  0  0  0
  -20.8044   19.0018  -28.3566 C   0  0  0  0  0  0  0  0  0  0  0  0
  -24.8520   17.7485  -29.5653 C   0  0  0  0  0  0  0  0  0  0  0  0
  -22.5287   18.4483  -30.0697 C   0  0  2  0  0  0  0  0  0  0  0  0
  -23.3986   17.2425  -29.6379 C   0  0  1  0  0  0  0  0  0  0  0  0
  -20.1146   14.2537  -20.8159 C   0  0  0  0  0  0  0  0  0  0  0  0
  -20.5517   19.9784  -27.2365 C   0  0  0  0  0  0  0  0  0  0  0  0
  -19.8025   14.0817  -23.2186 N   0  0  0  0  0  0  0  0  0  0  0  0
  -17.1232   22.2491  -28.1257 N   0  0  0  0  0  0  0  0  0  0  0  0
  -21.3236   15.6849  -22.3775 N   0  0  0  0  0  0  0  0  0  0  0  0
  -19.3334   20.7506  -27.5209 N   0  0  0  0  0  0  0  0  0  0  0  0
  -22.9768   16.6090  -28.4196 N   0  0  0  0  0  0  0  0  0  0  0  0
  -22.0323   19.2308  -28.9682 N   0  0  0  0  0  0  0  0  0  0  0  0
  -22.5092   17.0807  -23.7747 O   0  0  0  0  0  0  0  0  0  0  0  0
  -15.9095   21.0447  -26.5661 O   0  0  0  0  0  0  0  0  0  0  0  0
  -18.0285   19.5820  -25.9645 O   0  0  0  0  0  0  0  0  0  0  0  0
  -21.5171   15.0855  -29.3916 O   0  0  0  0  0  0  0  0  0  0  0  0
  -20.0109   18.1209  -28.6770 O   0  0  0  0  0  0  0  0  0  0  0  0
  -26.4913   20.9374  -32.6498 H   0  0  0  0  0  0  0  0  0  0  0  0
  -24.1712   21.6402  -33.1574 H   0  0  0  0  0  0  0  0  0  0  0  0
  -26.9282   19.1324  -30.9965 H   0  0  0  0  0  0  0  0  0  0  0  0
  -22.2469   20.5525  -32.0193 H   0  0  0  0  0  0  0  0  0  0  0  0
  -19.6118   14.0183  -25.2768 H   0  0  0  0  0  0  0  0  0  0  0  0
  -18.3195   23.2613  -29.4992 H   0  0  0  0  0  0  0  0  0  0  0  0
  -20.3376   21.9102  -28.9638 H   0  0  0  0  0  0  0  0  0  0  0  0
  -21.0754   16.9514  -26.3315 H   0  0  0  0  0  0  0  0  0  0  0  0
  -22.0049   14.0414  -26.7874 H   0  0  0  0  0  0  0  0  0  0  0  0
  -25.0891   18.1858  -28.5890 H   0  0  0  0  0  0  0  0  0  0  0  0
  -25.5645   16.9537  -29.8054 H   0  0  0  0  0  0  0  0  0  0  0  0
  -21.6739   18.1168  -30.6683 H   0  0  0  0  0  0  0  0  0  0  0  0
  -23.3348   16.4710  -30.4190 H   0  0  0  0  0  0  0  0  0  0  0  0
  -19.2901   14.8461  -20.4269 H   0  0  0  0  0  0  0  0  0  0  0  0
  -19.8495   13.1992  -20.7943 H   0  0  0  0  0  0  0  0  0  0  0  0
  -20.9998   14.4128  -20.2047 H   0  0  0  0  0  0  0  0  0  0  0  0
  -21.3998   20.6637  -27.1469 H   0  0  0  0  0  0  0  0  0  0  0  0
  -20.4223   19.4372  -26.2947 H   0  0  0  0  0  0  0  0  0  0  0  0
  -16.3316   22.8305  -28.3846 H   0  0  0  0  0  0  0  0  0  0  0  0
  -21.7537   16.0973  -21.5548 H   0  0  0  0  0  0  0  0  0  0  0  0
  -23.3967   16.9237  -27.5457 H   0  0  0  0  0  0  0  0  0  0  0  0
  -22.6110   19.9924  -28.6181 H   0  0  0  0  0  0  0  0  0  0  0  0
  1  2  1  0  0  0  0
  1  3  2  0  0  0  0
  2  4  2  0  0  0  0
  3  5  1  0  0  0  0
  4  6  1  0  0  0  0
  5  6  2  0  0  0  0
  5 19  1  0  0  0  0
  6 20  1  0  0  0  0
  7 10  2  0  0  0  0
  7 24  1  0  0  0  0
  8  9  2  0  0  0  0
  8 25  1  0  0  0  0
  9 27  1  0  0  0  0
 10 11  1  0  0  0  0
 10 15  1  0  0  0  0
 11 26  1  0  0  0  0
 11 30  2  0  0  0  0
 12 13  1  0  0  0  0
 12 25  1  0  0  0  0
 12 31  2  0  0  0  0
 13 27  1  0  0  0  0
 13 32  2  0  0  0  0
 14 22  1  0  0  0  0
 14 24  2  0  0  0  0
 14 26  1  0  0  0  0
 15 16  2  0  0  0  0
 16 17  1  0  0  0  0
 17 28  1  0  0  0  0
 17 33  2  0  0  0  0
 18 23  1  0  0  0  0
 18 29  1  0  0  0  0
 18 34  2  0  0  0  0
 19 21  1  0  0  0  0
 20 21  1  0  0  0  0
 20 29  1  0  0  0  0
 21 28  1  0  0  0  0
 23 27  1  0  0  0  0
  1 35  1  0  0  0  0
  2 36  1  0  0  0  0
  3 37  1  0  0  0  0
  4 38  1  0  0  0  0
  7 39  1  0  0  0  0
  8 40  1  0  0  0  0
  9 41  1  0  0  0  0
 15 42  1  0  0  0  0
 16 43  1  0  0  0  0
 19 44  1  0  0  0  0
 19 45  1  0  0  0  0
 20 46  1  0  0  0  0
 21 47  1  0  0  0  0
 22 48  1  0  0  0  0
 22 49  1  0  0  0  0
 22 50  1  0  0  0  0
 23 51  1  0  0  0  0
 23 52  1  0  0  0  0
 25 53  1  0  0  0  0
 26 54  1  0  0  0  0
 28 55  1  0  0  0  0
 29 56  1  0  0  0  0
M  END
> <FRED Chemgauss4 score>
-7.538644

$$$$
28
  -OEChem-08042116223D

 56 59  0     1  0  0  0  0  0999 V2000
  -23.4364   13.9623  -30.7318 C   0  0  0  0  0  0  0  0  0  0  0  0
  -22.8536   15.2225  -30.9333 C   0  0  0  0  0  0  0  0  0  0  0  0
  -22.9770   13.1213  -29.7170 C   0  0  0  0  0  0  0  0  0  0  0  0
  -21.8044   15.6604  -30.1217 C   0  0  0  0  0  0  0  0  0  0  0  0
  -21.9447   13.5691  -28.9087 C   0  0  0  0  0  0  0  0  0  0  0  0
  -21.3634   14.8291  -29.1031 C   0  0  0  0  0  0  0  0  0  0  0  0
  -21.5595   19.6151  -23.1674 C   0  0  0  0  0  0  0  0  0  0  0  0
  -21.1543   18.7938  -22.1920 C   0  0  0  0  0  0  0  0  0  0  0  0
  -22.0890   19.0959  -24.3994 C   0  0  0  0  0  0  0  0  0  0  0  0
  -19.1553   20.9559  -25.6690 C   0  0  0  0  0  0  0  0  0  0  0  0
  -22.1786   17.7733  -24.5767 C   0  0  0  0  0  0  0  0  0  0  0  0
  -18.4493   20.7696  -26.7939 C   0  0  0  0  0  0  0  0  0  0  0  0
  -21.2459   17.3129  -22.3738 C   0  0  0  0  0  0  0  0  0  0  0  0
  -17.6621   21.9113  -27.3241 C   0  0  0  0  0  0  0  0  0  0  0  0
  -18.5335   23.1173  -25.4131 C   0  0  0  0  0  0  0  0  0  0  0  0
  -18.4401   19.5098  -27.4832 C   0  0  0  0  0  0  0  0  0  0  0  0
  -19.4768   18.6622  -27.4677 C   0  0  0  0  0  0  0  0  0  0  0  0
  -19.3965   17.3713  -28.2056 C   0  0  0  0  0  0  0  0  0  0  0  0
  -20.8122   15.0107  -24.8040 C   0  0  0  0  0  0  0  0  0  0  0  0
  -21.2695   12.8275  -27.7966 C   0  0  0  0  0  0  0  0  0  0  0  0
  -20.2358   15.0453  -28.1334 C   0  0  2  0  0  0  0  0  0  0  0  0
  -20.5340   13.9650  -27.0615 C   0  0  1  0  0  0  0  0  0  0  0  0
  -18.5348   24.4387  -24.7004 C   0  0  0  0  0  0  0  0  0  0  0  0
  -21.8939   15.4504  -23.8507 C   0  0  0  0  0  0  0  0  0  0  0  0
  -19.2215   22.1219  -24.9469 N   0  0  0  0  0  0  0  0  0  0  0  0
  -17.7661   23.0581  -26.5582 N   0  0  0  0  0  0  0  0  0  0  0  0
  -21.7705   16.8932  -23.5963 N   0  0  0  0  0  0  0  0  0  0  0  0
  -20.1587   16.3796  -27.6057 N   0  0  0  0  0  0  0  0  0  0  0  0
  -21.3440   14.4668  -25.9698 N   0  0  0  0  0  0  0  0  0  0  0  0
  -20.8647   16.5799  -21.4625 O   0  0  0  0  0  0  0  0  0  0  0  0
  -16.9873   21.8317  -28.3459 O   0  0  0  0  0  0  0  0  0  0  0  0
  -18.7226   17.2302  -29.2211 O   0  0  0  0  0  0  0  0  0  0  0  0
  -19.6130   15.1279  -24.5659 O   0  0  0  0  0  0  0  0  0  0  0  0
  -24.2553   13.6411  -31.3694 H   0  0  0  0  0  0  0  0  0  0  0  0
  -23.2260   15.8658  -31.7261 H   0  0  0  0  0  0  0  0  0  0  0  0
  -23.4209   12.1426  -29.5689 H   0  0  0  0  0  0  0  0  0  0  0  0
  -21.3494   16.6323  -30.2879 H   0  0  0  0  0  0  0  0  0  0  0  0
  -21.4988   20.6912  -23.0500 H   0  0  0  0  0  0  0  0  0  0  0  0
  -20.7545   19.1713  -21.2584 H   0  0  0  0  0  0  0  0  0  0  0  0
  -22.4088   19.7921  -25.1656 H   0  0  0  0  0  0  0  0  0  0  0  0
  -19.7437   20.1441  -25.2502 H   0  0  0  0  0  0  0  0  0  0  0  0
  -22.5733   17.3501  -25.4936 H   0  0  0  0  0  0  0  0  0  0  0  0
  -17.5287   19.2800  -28.0270 H   0  0  0  0  0  0  0  0  0  0  0  0
  -20.3873   18.8927  -26.9233 H   0  0  0  0  0  0  0  0  0  0  0  0
  -22.0266   12.3466  -27.1617 H   0  0  0  0  0  0  0  0  0  0  0  0
  -20.5660   12.0720  -28.1691 H   0  0  0  0  0  0  0  0  0  0  0  0
  -19.2498   14.8239  -28.6121 H   0  0  0  0  0  0  0  0  0  0  0  0
  -19.6207   13.6035  -26.6385 H   0  0  0  0  0  0  0  0  0  0  0  0
  -17.7268   24.4581  -23.9734 H   0  0  0  0  0  0  0  0  0  0  0  0
  -19.4869   24.5753  -24.1929 H   0  0  0  0  0  0  0  0  0  0  0  0
  -18.3963   25.2394  -25.4230 H   0  0  0  0  0  0  0  0  0  0  0  0
  -22.8757   15.2442  -24.2871 H   0  0  0  0  0  0  0  0  0  0  0  0
  -21.7971   14.9094  -22.9049 H   0  0  0  0  0  0  0  0  0  0  0  0
  -17.2525   23.8800  -26.8626 H   0  0  0  0  0  0  0  0  0  0  0  0
  -20.6630   16.5815  -26.7444 H   0  0  0  0  0  0  0  0  0  0  0  0
  -22.3586   14.4190  -26.0605 H   0  0  0  0  0  0  0  0  0  0  0  0
  1  2  1  0  0  0  0
  1  3  2  0  0  0  0
  2  4  2  0  0  0  0
  3  5  1  0  0  0  0
  4  6  1  0  0  0  0
  5  6  2  0  0  0  0
  5 20  1  0  0  0  0
  6 21  1  0  0  0  0
  7  8  2  0  0  0  0
  7  9  1  0  0  0  0
  8 13  1  0  0  0  0
  9 11  2  0  0  0  0
 10 12  2  0  0  0  0
 10 25  1  0  0  0  0
 11 27  1  0  0  0  0
 12 14  1  0  0  0  0
 12 16  1  0  0  0  0
 13 27  1  0  0  0  0
 13 30  2  0  0  0  0
 14 26  1  0  0  0  0
 14 31  2  0  0  0  0
 15 23  1  0  0  0  0
 15 25  2  0  0  0  0
 15 26  1  0  0  0  0
 16 17  2  0  0  0  0
 17 18  1  0  0  0  0
 18 28  1  0  0  0  0
 18 32  2  0  0  0  0
 19 24  1  0  0  0  0
 19 29  1  0  0  0  0
 19 33  2  0  0  0  0
 20 22  1  0  0  0  0
 21 22  1  0  0  0  0
 21 28  1  0  0  0  0
 22 29  1  0  0  0  0
 24 27  1  0  0  0  0
  1 34  1  0  0  0  0
  2 35  1  0  0  0  0
  3 36  1  0  0  0  0
  4 37  1  0  0  0  0
  7 38  1  0  0  0  0
  8 39  1  0  0  0  0
  9 40  1  0  0  0  0
 10 41  1  0  0  0  0
 11 42  1  0  0  0  0
 16 43  1  0  0  0  0
 17 44  1  0  0  0  0
 20 45  1  0  0  0  0
 20 46  1  0  0  0  0
 21 47  1  0  0  0  0
 22 48  1  0  0  0  0
 23 49  1  0  0  0  0
 23 50  1  0  0  0  0
 23 51  1  0  0  0  0
 24 52  1  0  0  0  0
 24 53  1  0  0  0  0
 26 54  1  0  0  0  0
 28 55  1  0  0  0  0
 29 56  1  0  0  0  0
M  END
> <FRED Chemgauss4 score>
-8.975612

$$$$
39
  -OEChem-08042116223D

 59 62  0     1  0  0  0  0  0999 V2000
  -22.7437   12.6078  -29.6368 C   0  0  0  0  0  0  0  0  0  0  0  0
  -23.2756   12.5229  -28.3544 C   0  0  0  0  0  0  0  0  0  0  0  0
  -21.6567   13.4445  -29.8837 C   0  0  0  0  0  0  0  0  0  0  0  0
  -22.7196   13.2738  -27.3187 C   0  0  0  0  0  0  0  0  0  0  0  0
  -21.0824   14.1950  -28.8463 C   0  0  0  0  0  0  0  0  0  0  0  0
  -21.6172   14.1146  -27.5487 C   0  0  0  0  0  0  0  0  0  0  0  0
  -22.1017   19.6146  -22.5557 C   0  0  0  0  0  0  0  0  0  0  0  0
  -23.0218   18.7059  -22.2351 C   0  0  0  0  0  0  0  0  0  0  0  0
  -16.9103   20.2267  -26.6366 C   0  0  0  0  0  0  0  0  0  0  0  0
  -18.2324   20.4369  -26.7157 C   0  0  0  0  0  0  0  0  0  0  0  0
  -20.6814   19.2419  -22.6949 C   0  0  0  0  0  0  0  0  0  0  0  0
  -22.6620   17.2899  -22.0067 C   0  0  0  0  0  0  0  0  0  0  0  0
  -18.7039   21.7695  -27.1698 C   0  0  0  0  0  0  0  0  0  0  0  0
  -16.3477   22.3045  -27.3364 C   0  0  0  0  0  0  0  0  0  0  0  0
  -19.1837   19.4167  -26.3758 C   0  0  0  0  0  0  0  0  0  0  0  0
  -18.9366   18.1112  -26.5252 C   0  0  0  0  0  0  0  0  0  0  0  0
  -19.9863   17.1451  -26.1455 C   0  0  0  0  0  0  0  0  0  0  0  0
  -21.3079   14.7665  -23.1243 C   0  0  0  0  0  0  0  0  0  0  0  0
  -19.9431   15.1265  -29.1573 C   0  0  0  0  0  0  0  0  0  0  0  0
  -19.1462   15.5116  -27.9167 C   0  0  0  0  0  0  0  0  0  0  0  0
  -21.0382   14.9232  -26.4007 C   0  0  1  0  0  0  0  0  0  0  0  0
  -15.3622   23.3787  -27.6952 C   0  0  0  0  0  0  0  0  0  0  0  0
  -20.9103   15.6038  -21.9357 C   0  0  0  0  0  0  0  0  0  0  0  0
  -20.4184   14.0162  -25.3288 C   0  0  0  0  0  0  0  0  0  0  0  0
  -15.9326   21.1415  -26.9408 N   0  0  0  0  0  0  0  0  0  0  0  0
  -17.6778   22.6495  -27.4614 N   0  0  0  0  0  0  0  0  0  0  0  0
  -20.3752   17.9232  -22.4767 N   0  0  0  0  0  0  0  0  0  0  0  0
  -21.3361   16.9950  -22.1478 N   0  0  0  0  0  0  0  0  0  0  0  0
  -20.0445   15.9309  -26.8327 N   0  0  0  0  0  0  0  0  0  0  0  0
  -20.3092   14.7327  -24.1057 N   0  0  0  0  0  0  0  0  0  0  0  0
  -19.8486   20.0959  -22.9912 O   0  0  0  0  0  0  0  0  0  0  0  0
  -23.5493   16.4900  -21.7138 O   0  0  0  0  0  0  0  0  0  0  0  0
  -19.8941   22.0505  -27.2723 O   0  0  0  0  0  0  0  0  0  0  0  0
  -20.7546   17.4713  -25.2382 O   0  0  0  0  0  0  0  0  0  0  0  0
  -22.3854   14.1833  -23.2100 O   0  0  0  0  0  0  0  0  0  0  0  0
  -23.1790   12.0290  -30.4459 H   0  0  0  0  0  0  0  0  0  0  0  0
  -24.1269   11.8774  -28.1601 H   0  0  0  0  0  0  0  0  0  0  0  0
  -21.2582   13.5117  -30.8932 H   0  0  0  0  0  0  0  0  0  0  0  0
  -23.1581   13.2032  -26.3261 H   0  0  0  0  0  0  0  0  0  0  0  0
  -22.3733   20.6509  -22.7219 H   0  0  0  0  0  0  0  0  0  0  0  0
  -24.0652   18.9832  -22.1333 H   0  0  0  0  0  0  0  0  0  0  0  0
  -16.5268   19.2644  -26.3085 H   0  0  0  0  0  0  0  0  0  0  0  0
  -20.1342   19.7678  -25.9841 H   0  0  0  0  0  0  0  0  0  0  0  0
  -18.0023   17.7229  -26.9123 H   0  0  0  0  0  0  0  0  0  0  0  0
  -19.2610   14.6557  -29.8790 H   0  0  0  0  0  0  0  0  0  0  0  0
  -20.3505   16.0311  -29.6310 H   0  0  0  0  0  0  0  0  0  0  0  0
  -18.5654   14.6582  -27.5483 H   0  0  0  0  0  0  0  0  0  0  0  0
  -18.4317   16.3013  -28.1673 H   0  0  0  0  0  0  0  0  0  0  0  0
  -21.8856   15.4609  -25.9531 H   0  0  0  0  0  0  0  0  0  0  0  0
  -15.1203   23.3087  -28.7528 H   0  0  0  0  0  0  0  0  0  0  0  0
  -14.4581   23.2527  -27.1041 H   0  0  0  0  0  0  0  0  0  0  0  0
  -15.7958   24.3531  -27.4828 H   0  0  0  0  0  0  0  0  0  0  0  0
  -21.3902   15.2139  -21.0332 H   0  0  0  0  0  0  0  0  0  0  0  0
  -19.8240   15.5760  -21.8091 H   0  0  0  0  0  0  0  0  0  0  0  0
  -21.0785   13.1600  -25.2199 H   0  0  0  0  0  0  0  0  0  0  0  0
  -19.4389   13.7200  -25.6942 H   0  0  0  0  0  0  0  0  0  0  0  0
  -17.9280   23.5816  -27.7787 H   0  0  0  0  0  0  0  0  0  0  0  0
  -19.4175   17.5953  -22.5548 H   0  0  0  0  0  0  0  0  0  0  0  0
  -19.4443   15.2581  -23.9309 H   0  0  0  0  0  0  0  0  0  0  0  0
  1  2  1  0  0  0  0
  1  3  2  0  0  0  0
  2  4  2  0  0  0  0
  3  5  1  0  0  0  0
  4  6  1  0  0  0  0
  5  6  2  0  0  0  0
  5 19  1  0  0  0  0
  6 21  1  0  0  0  0
  7  8  2  0  0  0  0
  7 11  1  0  0  0  0
  8 12  1  0  0  0  0
  9 10  2  0  0  0  0
  9 25  1  0  0  0  0
 10 13  1  0  0  0  0
 10 15  1  0  0  0  0
 11 27  1  0  0  0  0
 11 31  2  0  0  0  0
 12 28  1  0  0  0  0
 12 32  2  0  0  0  0
 13 26  1  0  0  0  0
 13 33  2  0  0  0  0
 14 22  1  0  0  0  0
 14 25  2  0  0  0  0
 14 26  1  0  0  0  0
 15 16  2  0  0  0  0
 16 17  1  0  0  0  0
 17 29  1  0  0  0  0
 17 34  2  0  0  0  0
 18 23  1  0  0  0  0
 18 30  1  0  0  0  0
 18 35  2  0  0  0  0
 19 20  1  0  0  0  0
 20 29  1  0  0  0  0
 21 24  1  0  0  0  0
 21 29  1  0  0  0  0
 23 28  1  0  0  0  0
 24 30  1  0  0  0  0
 27 28  1  0  0  0  0
  1 36  1  0  0  0  0
  2 37  1  0  0  0  0
  3 38  1  0  0  0  0
  4 39  1  0  0  0  0
  7 40  1  0  0  0  0
  8 41  1  0  0  0  0
  9 42  1  0  0  0  0
 15 43  1  0  0  0  0
 16 44  1  0  0  0  0
 19 45  1  0  0  0  0
 19 46  1  0  0  0  0
 20 47  1  0  0  0  0
 20 48  1  0  0  0  0
 21 49  1  0  0  0  0
 22 50  1  0  0  0  0
 22 51  1  0  0  0  0
 22 52  1  0  0  0  0
 23 53  1  0  0  0  0
 23 54  1  0  0  0  0
 24 55  1  0  0  0  0
 24 56  1  0  0  0  0
 26 57  1  0  0  0  0
 27 58  1  0  0  0  0
 30 59  1  0  0  0  0
M  END
> <FRED Chemgauss4 score>
-7.224362

$$$$
29
  -OEChem-08042116223D

 59 62  0     1  0  0  0  0  0999 V2000
  -24.5164   19.7522  -32.2849 C   0  0  0  0  0  0  0  0  0  0  0  0
  -24.9956   18.5962  -31.6504 C   0  0  0  0  0  0  0  0  0  0  0  0
  -23.2470   20.2509  -31.9886 C   0  0  0  0  0  0  0  0  0  0  0  0
  -24.2124   17.9220  -30.7101 C   0  0  0  0  0  0  0  0  0  0  0  0
  -22.4720   19.5689  -31.0648 C   0  0  0  0  0  0  0  0  0  0  0  0
  -22.9468   18.4129  -30.4288 C   0  0  0  0  0  0  0  0  0  0  0  0
  -18.5694   23.0495  -24.5974 C   0  0  0  0  0  0  0  0  0  0  0  0
  -17.7193   22.9569  -25.6264 C   0  0  0  0  0  0  0  0  0  0  0  0
  -19.4728   21.9753  -24.2851 C   0  0  0  0  0  0  0  0  0  0  0  0
  -20.0498   13.5769  -23.5245 C   0  0  0  0  0  0  0  0  0  0  0  0
  -19.4666   20.8662  -25.0324 C   0  0  0  0  0  0  0  0  0  0  0  0
  -20.8562   14.6484  -23.5212 C   0  0  0  0  0  0  0  0  0  0  0  0
  -17.7000   21.7252  -26.4731 C   0  0  0  0  0  0  0  0  0  0  0  0
  -20.9407   15.4577  -22.2793 C   0  0  0  0  0  0  0  0  0  0  0  0
  -19.3573   13.8566  -21.3877 C   0  0  0  0  0  0  0  0  0  0  0  0
  -21.6257   15.0216  -24.6749 C   0  0  0  0  0  0  0  0  0  0  0  0
  -21.0703   15.3282  -25.8542 C   0  0  0  0  0  0  0  0  0  0  0  0
  -21.9311   15.7077  -27.0085 C   0  0  0  0  0  0  0  0  0  0  0  0
  -19.8697   19.4873  -27.7687 C   0  0  0  0  0  0  0  0  0  0  0  0
  -21.1065   19.9353  -30.5699 C   0  0  0  0  0  0  0  0  0  0  0  0
  -21.9345   17.9015  -29.4378 C   0  0  2  0  0  0  0  0  0  0  0  0
  -20.6541   18.5965  -29.9602 C   0  0  2  0  0  0  0  0  0  0  0  0
  -18.5568   13.4766  -20.1758 C   0  0  0  0  0  0  0  0  0  0  0  0
  -18.6477   19.4887  -26.8861 C   0  0  0  0  0  0  0  0  0  0  0  0
  -21.7964   16.3862  -29.3858 C   0  0  0  0  0  0  0  0  0  0  0  0
  -19.2806   13.1481  -22.4710 N   0  0  0  0  0  0  0  0  0  0  0  0
  -20.1467   14.9802  -21.2527 N   0  0  0  0  0  0  0  0  0  0  0  0
  -18.6068   20.7320  -26.1024 N   0  0  0  0  0  0  0  0  0  0  0  0
  -21.1918   15.9946  -28.1555 N   0  0  0  0  0  0  0  0  0  0  0  0
  -19.6568   18.7653  -28.9392 N   0  0  0  0  0  0  0  0  0  0  0  0
  -16.9104   21.6662  -27.4145 O   0  0  0  0  0  0  0  0  0  0  0  0
  -21.6516   16.4536  -22.1858 O   0  0  0  0  0  0  0  0  0  0  0  0
  -23.1546   15.7592  -26.9328 O   0  0  0  0  0  0  0  0  0  0  0  0
  -20.9171   20.0566  -27.4736 O   0  0  0  0  0  0  0  0  0  0  0  0
  -25.1428   20.2662  -33.0088 H   0  0  0  0  0  0  0  0  0  0  0  0
  -25.9894   18.2265  -31.8880 H   0  0  0  0  0  0  0  0  0  0  0  0
  -22.8823   21.1513  -32.4713 H   0  0  0  0  0  0  0  0  0  0  0  0
  -24.5994   17.0391  -30.2129 H   0  0  0  0  0  0  0  0  0  0  0  0
  -18.5950   23.9367  -23.9748 H   0  0  0  0  0  0  0  0  0  0  0  0
  -17.0325   23.7580  -25.8723 H   0  0  0  0  0  0  0  0  0  0  0  0
  -20.1454   22.0859  -23.4428 H   0  0  0  0  0  0  0  0  0  0  0  0
  -19.9614   12.9600  -24.4146 H   0  0  0  0  0  0  0  0  0  0  0  0
  -20.1349   20.0383  -24.8231 H   0  0  0  0  0  0  0  0  0  0  0  0
  -22.7022   15.0413  -24.5336 H   0  0  0  0  0  0  0  0  0  0  0  0
  -19.9939   15.3088  -25.9942 H   0  0  0  0  0  0  0  0  0  0  0  0
  -20.4419   20.2511  -31.3794 H   0  0  0  0  0  0  0  0  0  0  0  0
  -21.1880   20.7273  -29.8173 H   0  0  0  0  0  0  0  0  0  0  0  0
  -22.2049   18.2868  -28.4454 H   0  0  0  0  0  0  0  0  0  0  0  0
  -20.1908   17.9855  -30.7487 H   0  0  0  0  0  0  0  0  0  0  0  0
  -17.5891   13.9707  -20.2122 H   0  0  0  0  0  0  0  0  0  0  0  0
  -18.4165   12.3983  -20.1581 H   0  0  0  0  0  0  0  0  0  0  0  0
  -19.0905   13.7827  -19.2792 H   0  0  0  0  0  0  0  0  0  0  0  0
  -18.6847   18.6341  -26.2041 H   0  0  0  0  0  0  0  0  0  0  0  0
  -17.7457   19.4222  -27.5014 H   0  0  0  0  0  0  0  0  0  0  0  0
  -22.7976   15.9633  -29.4695 H   0  0  0  0  0  0  0  0  0  0  0  0
  -21.1741   16.0852  -30.2286 H   0  0  0  0  0  0  0  0  0  0  0  0
  -20.1552   15.4861  -20.3718 H   0  0  0  0  0  0  0  0  0  0  0  0
  -20.1693   15.9507  -28.1037 H   0  0  0  0  0  0  0  0  0  0  0  0
  -18.7445   18.3328  -29.0800 H   0  0  0  0  0  0  0  0  0  0  0  0
  1  2  1  0  0  0  0
  1  3  2  0  0  0  0
  2  4  2  0  0  0  0
  3  5  1  0  0  0  0
  4  6  1  0  0  0  0
  5  6  2  0  0  0  0
  5 20  1  0  0  0  0
  6 21  1  0  0  0  0
  7  8  2  0  0  0  0
  7  9  1  0  0  0  0
  8 13  1  0  0  0  0
  9 11  2  0  0  0  0
 10 12  2  0  0  0  0
 10 26  1  0  0  0  0
 11 28  1  0  0  0  0
 12 14  1  0  0  0  0
 12 16  1  0  0  0  0
 13 28  1  0  0  0  0
 13 31  2  0  0  0  0
 14 27  1  0  0  0  0
 14 32  2  0  0  0  0
 15 23  1  0  0  0  0
 15 26  2  0  0  0  0
 15 27  1  0  0  0  0
 16 17  2  0  0  0  0
 17 18  1  0  0  0  0
 18 29  1  0  0  0  0
 18 33  2  0  0  0  0
 19 24  1  0  0  0  0
 19 30  1  0  0  0  0
 19 34  2  0  0  0  0
 20 22  1  0  0  0  0
 21 22  1  0  0  0  0
 21 25  1  0  0  0  0
 22 30  1  0  0  0  0
 24 28  1  0  0  0  0
 25 29  1  0  0  0  0
  1 35  1  0  0  0  0
  2 36  1  0  0  0  0
  3 37  1  0  0  0  0
  4 38  1  0  0  0  0
  7 39  1  0  0  0  0
  8 40  1  0  0  0  0
  9 41  1  0  0  0  0
 10 42  1  0  0  0  0
 11 43  1  0  0  0  0
 16 44  1  0  0  0  0
 17 45  1  0  0  0  0
 20 46  1  0  0  0  0
 20 47  1  0  0  0  0
 21 48  1  0  0  0  0
 22 49  1  0  0  0  0
 23 50  1  0  0  0  0
 23 51  1  0  0  0  0
 23 52  1  0  0  0  0
 24 53  1  0  0  0  0
 24 54  1  0  0  0  0
 25 55  1  0  0  0  0
 25 56  1  0  0  0  0
 27 57  1  0  0  0  0
 29 58  1  0  0  0  0
 30 59  1  0  0  0  0
M  END
> <FRED Chemgauss4 score>
-7.028280

$$$$
53
  -OEChem-08042116223D

 55 58  0     1  0  0  0  0  0999 V2000
  -20.6369   13.0128  -28.5577 C   0  0  0  0  0  0  0  0  0  0  0  0
  -20.7592   13.5304  -27.2585 C   0  0  0  0  0  0  0  0  0  0  0  0
  -21.0529   13.7575  -29.6633 C   0  0  0  0  0  0  0  0  0  0  0  0
  -21.2980   14.8011  -27.0459 C   0  0  0  0  0  0  0  0  0  0  0  0
  -21.5973   15.0116  -29.4431 C   0  0  0  0  0  0  0  0  0  0  0  0
  -21.7150   15.5316  -28.1471 C   0  0  0  0  0  0  0  0  0  0  0  0
  -20.1978   20.5833  -32.8997 C   0  0  0  0  0  0  0  0  0  0  0  0
  -19.6556   21.3965  -31.8466 C   0  0  0  0  0  0  0  0  0  0  0  0
  -17.1565   20.7406  -26.1073 C   0  0  0  0  0  0  0  0  0  0  0  0
  -21.4597   20.1530  -32.8205 C   0  0  0  0  0  0  0  0  0  0  0  0
  -16.3681   22.8052  -25.6588 C   0  0  0  0  0  0  0  0  0  0  0  0
  -18.3884   20.9923  -25.6388 C   0  0  0  0  0  0  0  0  0  0  0  0
  -20.3797   21.7453  -30.7712 C   0  0  0  0  0  0  0  0  0  0  0  0
  -18.6707   22.3467  -25.0955 C   0  0  0  0  0  0  0  0  0  0  0  0
  -21.8078   21.2611  -30.6777 C   0  0  0  0  0  0  0  0  0  0  0  0
  -19.4225   19.9959  -25.6531 C   0  0  0  0  0  0  0  0  0  0  0  0
  -19.8672   19.4223  -26.7785 C   0  0  0  0  0  0  0  0  0  0  0  0
  -20.9442   18.3958  -26.7178 C   0  0  0  0  0  0  0  0  0  0  0  0
  -23.6137   18.4851  -31.4142 C   0  0  0  0  0  0  0  0  0  0  0  0
  -22.0764   15.9974  -30.4639 C   0  0  0  0  0  0  0  0  0  0  0  0
  -22.2948   16.9155  -28.1724 C   0  0  2  0  0  0  0  0  0  0  0  0
  -22.9253   16.9370  -29.5863 C   0  0  1  0  0  0  0  0  0  0  0  0
  -23.6290   19.9553  -31.7466 C   0  0  0  0  0  0  0  0  0  0  0  0
  -16.1107   21.6313  -26.1339 N   0  0  0  0  0  0  0  0  0  0  0  0
  -17.5833   23.1989  -25.1477 N   0  0  0  0  0  0  0  0  0  0  0  0
  -22.2541   20.4761  -31.7429 N   0  0  0  0  0  0  0  0  0  0  0  0
  -19.9282   22.5127  -29.7382 N   0  0  0  0  0  0  0  0  0  0  0  0
  -21.2761   17.9133  -27.9753 N   0  0  0  0  0  0  0  0  0  0  0  0
  -23.0618   18.2475  -30.1584 N   0  0  0  0  0  0  0  0  0  0  0  0
  -19.7677   22.6645  -24.6469 O   0  0  0  0  0  0  0  0  0  0  0  0
  -22.4888   21.5705  -29.6991 O   0  0  0  0  0  0  0  0  0  0  0  0
  -21.4618   18.0412  -25.6635 O   0  0  0  0  0  0  0  0  0  0  0  0
  -24.0423   17.6169  -32.1698 O   0  0  0  0  0  0  0  0  0  0  0  0
  -20.2102   12.0240  -28.7032 H   0  0  0  0  0  0  0  0  0  0  0  0
  -20.4265   12.9372  -26.4111 H   0  0  0  0  0  0  0  0  0  0  0  0
  -20.9493   13.3588  -30.6665 H   0  0  0  0  0  0  0  0  0  0  0  0
  -21.3833   15.2020  -26.0415 H   0  0  0  0  0  0  0  0  0  0  0  0
  -19.5673   20.3327  -33.7445 H   0  0  0  0  0  0  0  0  0  0  0  0
  -18.6257   21.7225  -31.9553 H   0  0  0  0  0  0  0  0  0  0  0  0
  -16.9128   19.7623  -26.5122 H   0  0  0  0  0  0  0  0  0  0  0  0
  -21.8986   19.5377  -33.5980 H   0  0  0  0  0  0  0  0  0  0  0  0
  -15.6049   23.5979  -25.6305 H   0  0  0  0  0  0  0  0  0  0  0  0
  -19.8301   19.7298  -24.6825 H   0  0  0  0  0  0  0  0  0  0  0  0
  -19.4593   19.6895  -27.7485 H   0  0  0  0  0  0  0  0  0  0  0  0
  -21.2181   16.5119  -30.9101 H   0  0  0  0  0  0  0  0  0  0  0  0
  -22.6804   15.5253  -31.2445 H   0  0  0  0  0  0  0  0  0  0  0  0
  -23.0614   17.0507  -27.4024 H   0  0  0  0  0  0  0  0  0  0  0  0
  -23.9439   16.5278  -29.5184 H   0  0  0  0  0  0  0  0  0  0  0  0
  -24.0680   20.1044  -32.7375 H   0  0  0  0  0  0  0  0  0  0  0  0
  -24.2205   20.4975  -31.0031 H   0  0  0  0  0  0  0  0  0  0  0  0
  -17.6893   24.1458  -24.7959 H   0  0  0  0  0  0  0  0  0  0  0  0
  -18.9902   22.8493  -29.7676 H   0  0  0  0  0  0  0  0  0  0  0  0
  -20.5497   22.7138  -28.9851 H   0  0  0  0  0  0  0  0  0  0  0  0
  -20.8121   18.2901  -28.7997 H   0  0  0  0  0  0  0  0  0  0  0  0
  -22.7370   19.0471  -29.6153 H   0  0  0  0  0  0  0  0  0  0  0  0
  1  2  1  0  0  0  0
  1  3  2  0  0  0  0
  2  4  2  0  0  0  0
  3  5  1  0  0  0  0
  4  6  1  0  0  0  0
  5  6  2  0  0  0  0
  5 20  1  0  0  0  0
  6 21  1  0  0  0  0
  7  8  1  0  0  0  0
  7 10  2  0  0  0  0
  8 13  2  0  0  0  0
  9 12  2  0  0  0  0
  9 24  1  0  0  0  0
 10 26  1  0  0  0  0
 11 24  2  0  0  0  0
 11 25  1  0  0  0  0
 12 14  1  0  0  0  0
 12 16  1  0  0  0  0
 13 15  1  0  0  0  0
 13 27  1  0  0  0  0
 14 25  1  0  0  0  0
 14 30  2  0  0  0  0
 15 26  1  0  0  0  0
 15 31  2  0  0  0  0
 16 17  2  0  0  0  0
 17 18  1  0  0  0  0
 18 28  1  0  0  0  0
 18 32  2  0  0  0  0
 19 23  1  0  0  0  0
 19 29  1  0  0  0  0
 19 33  2  0  0  0  0
 20 22  1  0  0  0  0
 21 22  1  0  0  0  0
 21 28  1  0  0  0  0
 22 29  1  0  0  0  0
 23 26  1  0  0  0  0
  1 34  1  0  0  0  0
  2 35  1  0  0  0  0
  3 36  1  0  0  0  0
  4 37  1  0  0  0  0
  7 38  1  0  0  0  0
  8 39  1  0  0  0  0
  9 40  1  0  0  0  0
 10 41  1  0  0  0  0
 11 42  1  0  0  0  0
 16 43  1  0  0  0  0
 17 44  1  0  0  0  0
 20 45  1  0  0  0  0
 20 46  1  0  0  0  0
 21 47  1  0  0  0  0
 22 48  1  0  0  0  0
 23 49  1  0  0  0  0
 23 50  1  0  0  0  0
 25 51  1  0  0  0  0
 27 52  1  0  0  0  0
 27 53  1  0  0  0  0
 28 54  1  0  0  0  0
 29 55  1  0  0  0  0
M  END
> <FRED Chemgauss4 score>
-10.621492

$$$$
68
  -OEChem-08042116223D

 56 59  0     1  0  0  0  0  0999 V2000
  -23.9077   16.3071  -32.6741 C   0  0  0  0  0  0  0  0  0  0  0  0
  -23.7544   17.5207  -31.9870 C   0  0  0  0  0  0  0  0  0  0  0  0
  -23.3965   15.1210  -32.1442 C   0  0  0  0  0  0  0  0  0  0  0  0
  -23.0865   17.5652  -30.7611 C   0  0  0  0  0  0  0  0  0  0  0  0
  -22.7248   15.1765  -30.9338 C   0  0  0  0  0  0  0  0  0  0  0  0
  -22.5667   16.3866  -30.2475 C   0  0  0  0  0  0  0  0  0  0  0  0
  -20.6649   17.2312  -21.2425 C   0  0  0  0  0  0  0  0  0  0  0  0
  -20.3686   15.9447  -21.4229 C   0  0  0  0  0  0  0  0  0  0  0  0
  -17.5190   20.5753  -26.9474 C   0  0  0  0  0  0  0  0  0  0  0  0
  -16.5695   22.4415  -26.1103 C   0  0  0  0  0  0  0  0  0  0  0  0
  -18.7398   20.8496  -26.4627 C   0  0  0  0  0  0  0  0  0  0  0  0
  -20.5537   18.1993  -22.3497 C   0  0  0  0  0  0  0  0  0  0  0  0
  -19.9186   15.4326  -22.7351 C   0  0  0  0  0  0  0  0  0  0  0  0
  -18.9215   22.1021  -25.6833 C   0  0  0  0  0  0  0  0  0  0  0  0
  -19.8558   19.9722  -26.6799 C   0  0  0  0  0  0  0  0  0  0  0  0
  -19.9758   19.2002  -27.7674 C   0  0  0  0  0  0  0  0  0  0  0  0
  -21.1621   18.3144  -27.9267 C   0  0  0  0  0  0  0  0  0  0  0  0
  -20.5127   15.1820  -25.7408 C   0  0  0  0  0  0  0  0  0  0  0  0
  -22.1368   14.0366  -30.1632 C   0  0  0  0  0  0  0  0  0  0  0  0
  -21.8519   16.1692  -28.9455 C   0  0  1  0  0  0  0  0  0  0  0  0
  -21.2115   14.7779  -29.1743 C   0  0  1  0  0  0  0  0  0  0  0  0
  -19.3921   15.9239  -25.0584 C   0  0  0  0  0  0  0  0  0  0  0  0
  -21.0127   14.0022  -27.8791 C   0  0  0  0  0  0  0  0  0  0  0  0
  -16.3991   21.3555  -26.7897 N   0  0  0  0  0  0  0  0  0  0  0  0
  -17.7628   22.8455  -25.5571 N   0  0  0  0  0  0  0  0  0  0  0  0
  -20.1334   17.6982  -23.5549 N   0  0  0  0  0  0  0  0  0  0  0  0
  -19.8324   16.3669  -23.7274 N   0  0  0  0  0  0  0  0  0  0  0  0
  -20.8653   17.1734  -28.6565 N   0  0  0  0  0  0  0  0  0  0  0  0
  -20.1500   14.7321  -27.0167 N   0  0  0  0  0  0  0  0  0  0  0  0
  -20.8317   19.3817  -22.1617 O   0  0  0  0  0  0  0  0  0  0  0  0
  -19.6584   14.2359  -22.8496 O   0  0  0  0  0  0  0  0  0  0  0  0
  -20.0015   22.4322  -25.2034 O   0  0  0  0  0  0  0  0  0  0  0  0
  -22.2620   18.5909  -27.4588 O   0  0  0  0  0  0  0  0  0  0  0  0
  -21.6125   14.9969  -25.2263 O   0  0  0  0  0  0  0  0  0  0  0  0
  -24.4258   16.2923  -33.6290 H   0  0  0  0  0  0  0  0  0  0  0  0
  -24.1553   18.4352  -32.4160 H   0  0  0  0  0  0  0  0  0  0  0  0
  -23.5252   14.1816  -32.6716 H   0  0  0  0  0  0  0  0  0  0  0  0
  -22.9788   18.5042  -30.2276 H   0  0  0  0  0  0  0  0  0  0  0  0
  -20.9944   17.5991  -20.2775 H   0  0  0  0  0  0  0  0  0  0  0  0
  -20.4511   15.2355  -20.6067 H   0  0  0  0  0  0  0  0  0  0  0  0
  -17.3477   19.6692  -27.5219 H   0  0  0  0  0  0  0  0  0  0  0  0
  -15.7415   23.1419  -25.9219 H   0  0  0  0  0  0  0  0  0  0  0  0
  -20.6096   19.9708  -25.8983 H   0  0  0  0  0  0  0  0  0  0  0  0
  -19.2218   19.2028  -28.5485 H   0  0  0  0  0  0  0  0  0  0  0  0
  -22.9004   13.4395  -29.6600 H   0  0  0  0  0  0  0  0  0  0  0  0
  -21.5543   13.4030  -30.8385 H   0  0  0  0  0  0  0  0  0  0  0  0
  -22.5636   16.1438  -28.0956 H   0  0  0  0  0  0  0  0  0  0  0  0
  -20.1973   14.8861  -29.6326 H   0  0  0  0  0  0  0  0  0  0  0  0
  -18.5258   15.2646  -24.9502 H   0  0  0  0  0  0  0  0  0  0  0  0
  -19.1100   16.7980  -25.6527 H   0  0  0  0  0  0  0  0  0  0  0  0
  -21.9952   13.8783  -27.4322 H   0  0  0  0  0  0  0  0  0  0  0  0
  -20.5741   13.0456  -28.1490 H   0  0  0  0  0  0  0  0  0  0  0  0
  -17.7978   23.7179  -25.0381 H   0  0  0  0  0  0  0  0  0  0  0  0
  -20.0336   18.3072  -24.3611 H   0  0  0  0  0  0  0  0  0  0  0  0
  -19.9288   17.0421  -29.0326 H   0  0  0  0  0  0  0  0  0  0  0  0
  -19.2016   14.9427  -27.3500 H   0  0  0  0  0  0  0  0  0  0  0  0
  1  2  1  0  0  0  0
  1  3  2  0  0  0  0
  2  4  2  0  0  0  0
  3  5  1  0  0  0  0
  4  6  1  0  0  0  0
  5  6  2  0  0  0  0
  5 19  1  0  0  0  0
  6 20  1  0  0  0  0
  7  8  2  0  0  0  0
  7 12  1  0  0  0  0
  8 13  1  0  0  0  0
  9 11  2  0  0  0  0
  9 24  1  0  0  0  0
 10 24  2  0  0  0  0
 10 25  1  0  0  0  0
 11 14  1  0  0  0  0
 11 15  1  0  0  0  0
 12 26  1  0  0  0  0
 12 30  2  0  0  0  0
 13 27  1  0  0  0  0
 13 31  2  0  0  0  0
 14 25  1  0  0  0  0
 14 32  2  0  0  0  0
 15 16  2  0  0  0  0
 16 17  1  0  0  0  0
 17 28  1  0  0  0  0
 17 33  2  0  0  0  0
 18 22  1  0  0  0  0
 18 29  1  0  0  0  0
 18 34  2  0  0  0  0
 19 21  1  0  0  0  0
 20 21  1  0  0  0  0
 20 28  1  0  0  0  0
 21 23  1  0  0  0  0
 22 27  1  0  0  0  0
 23 29  1  0  0  0  0
 26 27  1  0  0  0  0
  1 35  1  0  0  0  0
  2 36  1  0  0  0  0
  3 37  1  0  0  0  0
  4 38  1  0  0  0  0
  7 39  1  0  0  0  0
  8 40  1  0  0  0  0
  9 41  1  0  0  0  0
 10 42  1  0  0  0  0
 15 43  1  0  0  0  0
 16 44  1  0  0  0  0
 19 45  1  0  0  0  0
 19 46  1  0  0  0  0
 20 47  1  0  0  0  0
 21 48  1  0  0  0  0
 22 49  1  0  0  0  0
 22 50  1  0  0  0  0
 23 51  1  0  0  0  0
 23 52  1  0  0  0  0
 25 53  1  0  0  0  0
 26 54  1  0  0  0  0
 28 55  1  0  0  0  0
 29 56  1  0  0  0  0
M  END
> <FRED Chemgauss4 score>
-9.137840

$$$$
48
  -OEChem-08042116223D

 55 58  0     1  0  0  0  0  0999 V2000
  -24.4121   16.3506  -32.3082 C   0  0  0  0  0  0  0  0  0  0  0  0
  -23.2919   16.9942  -32.8574 C   0  0  0  0  0  0  0  0  0  0  0  0
  -24.3346   15.7254  -31.0619 C   0  0  0  0  0  0  0  0  0  0  0  0
  -22.0780   17.0234  -32.1677 C   0  0  0  0  0  0  0  0  0  0  0  0
  -23.1240   15.7483  -30.3900 C   0  0  0  0  0  0  0  0  0  0  0  0
  -22.0065   16.3950  -30.9347 C   0  0  0  0  0  0  0  0  0  0  0  0
  -19.6921   21.2386  -25.7698 C   0  0  0  0  0  0  0  0  0  0  0  0
  -18.6078   20.7815  -26.4131 C   0  0  0  0  0  0  0  0  0  0  0  0
  -17.3779   21.6130  -26.3911 C   0  0  0  0  0  0  0  0  0  0  0  0
  -22.4466   16.0891  -23.0803 C   0  0  0  0  0  0  0  0  0  0  0  0
  -18.7007   23.1469  -25.0633 C   0  0  0  0  0  0  0  0  0  0  0  0
  -20.9574   16.7247  -24.6786 C   0  0  0  0  0  0  0  0  0  0  0  0
  -18.6131   19.5261  -27.1103 C   0  0  0  0  0  0  0  0  0  0  0  0
  -19.4424   19.2602  -28.1276 C   0  0  0  0  0  0  0  0  0  0  0  0
  -19.3926   17.9346  -28.8042 C   0  0  0  0  0  0  0  0  0  0  0  0
  -20.9422   14.2140  -26.7980 C   0  0  0  0  0  0  0  0  0  0  0  0
  -22.8121   15.1815  -29.0390 C   0  0  0  0  0  0  0  0  0  0  0  0
  -21.9063   14.8050  -23.6705 C   0  0  0  0  0  0  0  0  0  0  0  0
  -20.8316   16.3161  -30.0045 C   0  0  2  0  0  0  0  0  0  0  0  0
  -21.2723   15.1524  -29.0832 C   0  0  1  0  0  0  0  0  0  0  0  0
  -18.6832   24.4607  -24.3369 C   0  0  0  0  0  0  0  0  0  0  0  0
  -20.1843   14.4949  -25.5257 C   0  0  0  0  0  0  0  0  0  0  0  0
  -19.7763   22.4228  -25.0800 N   0  0  0  0  0  0  0  0  0  0  0  0
  -17.5202   22.7926  -25.6836 N   0  0  0  0  0  0  0  0  0  0  0  0
  -21.8497   17.1497  -23.7161 N   0  0  0  0  0  0  0  0  0  0  0  0
  -20.9997   15.3415  -24.6425 N   0  0  0  0  0  0  0  0  0  0  0  0
  -20.6286   17.5611  -29.3111 N   0  0  0  0  0  0  0  0  0  0  0  0
  -20.6854   15.1746  -27.7723 N   0  0  0  0  0  0  0  0  0  0  0  0
  -16.3403   21.2740  -26.9517 O   0  0  0  0  0  0  0  0  0  0  0  0
  -23.2778   16.1427  -22.1850 O   0  0  0  0  0  0  0  0  0  0  0  0
  -20.2803   17.4430  -25.4020 O   0  0  0  0  0  0  0  0  0  0  0  0
  -18.3638   17.2709  -28.8847 O   0  0  0  0  0  0  0  0  0  0  0  0
  -21.6887   13.2493  -26.9410 O   0  0  0  0  0  0  0  0  0  0  0  0
  -25.3496   16.3432  -32.8577 H   0  0  0  0  0  0  0  0  0  0  0  0
  -23.3730   17.4783  -33.8268 H   0  0  0  0  0  0  0  0  0  0  0  0
  -25.2039   15.2364  -30.6360 H   0  0  0  0  0  0  0  0  0  0  0  0
  -21.2164   17.5289  -32.5908 H   0  0  0  0  0  0  0  0  0  0  0  0
  -20.6109   20.6585  -25.7633 H   0  0  0  0  0  0  0  0  0  0  0  0
  -17.8938   18.7923  -26.7593 H   0  0  0  0  0  0  0  0  0  0  0  0
  -20.1616   19.9944  -28.4775 H   0  0  0  0  0  0  0  0  0  0  0  0
  -23.1906   15.8541  -28.2613 H   0  0  0  0  0  0  0  0  0  0  0  0
  -23.2272   14.1783  -28.9045 H   0  0  0  0  0  0  0  0  0  0  0  0
  -21.3646   14.2247  -22.9209 H   0  0  0  0  0  0  0  0  0  0  0  0
  -22.6974   14.2331  -24.1596 H   0  0  0  0  0  0  0  0  0  0  0  0
  -19.9076   16.0638  -30.5350 H   0  0  0  0  0  0  0  0  0  0  0  0
  -20.9529   14.2057  -29.5428 H   0  0  0  0  0  0  0  0  0  0  0  0
  -18.3715   24.3006  -23.3078 H   0  0  0  0  0  0  0  0  0  0  0  0
  -19.6792   24.8970  -24.3538 H   0  0  0  0  0  0  0  0  0  0  0  0
  -17.9879   25.1368  -24.8289 H   0  0  0  0  0  0  0  0  0  0  0  0
  -19.9593   13.5538  -25.0154 H   0  0  0  0  0  0  0  0  0  0  0  0
  -19.2495   15.0136  -25.7577 H   0  0  0  0  0  0  0  0  0  0  0  0
  -16.7167   23.4116  -25.6268 H   0  0  0  0  0  0  0  0  0  0  0  0
  -22.0407   18.1225  -23.5049 H   0  0  0  0  0  0  0  0  0  0  0  0
  -21.4361   18.1650  -29.1695 H   0  0  0  0  0  0  0  0  0  0  0  0
  -20.0461   15.9352  -27.5429 H   0  0  0  0  0  0  0  0  0  0  0  0
  1  2  1  0  0  0  0
  1  3  2  0  0  0  0
  2  4  2  0  0  0  0
  3  5  1  0  0  0  0
  4  6  1  0  0  0  0
  5  6  2  0  0  0  0
  5 17  1  0  0  0  0
  6 19  1  0  0  0  0
  7  8  2  0  0  0  0
  7 23  1  0  0  0  0
  8  9  1  0  0  0  0
  8 13  1  0  0  0  0
  9 24  1  0  0  0  0
  9 29  2  0  0  0  0
 10 18  1  0  0  0  0
 10 25  1  0  0  0  0
 10 30  2  0  0  0  0
 11 21  1  0  0  0  0
 11 23  2  0  0  0  0
 11 24  1  0  0  0  0
 12 25  1  0  0  0  0
 12 26  1  0  0  0  0
 12 31  2  0  0  0  0
 13 14  2  0  0  0  0
 14 15  1  0  0  0  0
 15 27  1  0  0  0  0
 15 32  2  0  0  0  0
 16 22  1  0  0  0  0
 16 28  1  0  0  0  0
 16 33  2  0  0  0  0
 17 20  1  0  0  0  0
 18 26  1  0  0  0  0
 19 20  1  0  0  0  0
 19 27  1  0  0  0  0
 20 28  1  0  0  0  0
 22 26  1  0  0  0  0
  1 34  1  0  0  0  0
  2 35  1  0  0  0  0
  3 36  1  0  0  0  0
  4 37  1  0  0  0  0
  7 38  1  0  0  0  0
 13 39  1  0  0  0  0
 14 40  1  0  0  0  0
 17 41  1  0  0  0  0
 17 42  1  0  0  0  0
 18 43  1  0  0  0  0
 18 44  1  0  0  0  0
 19 45  1  0  0  0  0
 20 46  1  0  0  0  0
 21 47  1  0  0  0  0
 21 48  1  0  0  0  0
 21 49  1  0  0  0  0
 22 50  1  0  0  0  0
 22 51  1  0  0  0  0
 24 52  1  0  0  0  0
 25 53  1  0  0  0  0
 27 54  1  0  0  0  0
 28 55  1  0  0  0  0
M  END
> <FRED Chemgauss4 score>
-7.000089

$$$$
18
  -OEChem-08042116223D

 57 60  0     1  0  0  0  0  0999 V2000
  -20.6038   22.6792  -33.6916 C   0  0  0  0  0  0  0  0  0  0  0  0
  -19.3782   22.0885  -33.3984 C   0  0  0  0  0  0  0  0  0  0  0  0
  -21.7339   22.3526  -32.9415 C   0  0  0  0  0  0  0  0  0  0  0  0
  -19.2780   21.1690  -32.3540 C   0  0  0  0  0  0  0  0  0  0  0  0
  -22.7786   21.0886  -31.1212 C   0  0  0  0  0  0  0  0  0  0  0  0
  -22.6785   20.1690  -30.0768 C   0  0  0  0  0  0  0  0  0  0  0  0
  -20.3228   19.9049  -30.5337 C   0  0  0  0  0  0  0  0  0  0  0  0
  -21.6515   21.4291  -31.8867 C   0  0  0  0  0  0  0  0  0  0  0  0
  -20.4052   20.8284  -31.5885 C   0  0  0  0  0  0  0  0  0  0  0  0
  -21.4529   19.5783  -29.7836 C   0  0  0  0  0  0  0  0  0  0  0  0
  -20.6860   14.3557  -23.0264 C   0  0  0  0  0  0  0  0  0  0  0  0
  -21.1636   13.1963  -21.1522 C   0  0  0  0  0  0  0  0  0  0  0  0
  -21.6307   15.2861  -22.8205 C   0  0  0  0  0  0  0  0  0  0  0  0
  -22.4777   15.1707  -21.6045 C   0  0  0  0  0  0  0  0  0  0  0  0
  -23.6503   12.3029  -30.0221 C   0  0  0  0  0  0  0  0  0  0  0  0
  -22.1198   13.2114  -28.6049 C   0  0  0  0  0  0  0  0  0  0  0  0
  -21.8351   16.3737  -23.7358 C   0  0  0  0  0  0  0  0  0  0  0  0
  -20.8499   16.9007  -24.4740 C   0  0  0  0  0  0  0  0  0  0  0  0
  -21.1351   18.0293  -25.4027 C   0  0  0  0  0  0  0  0  0  0  0  0
  -21.8880   16.3403  -29.5808 C   0  0  0  0  0  0  0  0  0  0  0  0
  -23.0234   13.4533  -30.7790 C   0  0  0  0  0  0  0  0  0  0  0  0
  -21.2042   15.0699  -30.0174 C   0  0  0  0  0  0  0  0  0  0  0  0
  -20.3739   19.0191  -27.5407 C   0  0  0  0  0  0  0  0  0  0  0  0
  -21.3477   18.5955  -28.6665 C   0  0  2  0  0  0  0  0  0  0  0  0
  -20.4208   13.2861  -22.2058 N   0  0  0  0  0  0  0  0  0  0  0  0
  -22.1664   14.0772  -20.8180 N   0  0  0  0  0  0  0  0  0  0  0  0
  -23.0749   12.2311  -28.7774 N   0  0  0  0  0  0  0  0  0  0  0  0
  -22.0987   13.9253  -29.7909 N   0  0  0  0  0  0  0  0  0  0  0  0
  -20.2930   18.0226  -26.5048 N   0  0  0  0  0  0  0  0  0  0  0  0
  -20.9619   17.2541  -29.1516 N   0  0  0  0  0  0  0  0  0  0  0  0
  -23.3645   15.9754  -21.3368 O   0  0  0  0  0  0  0  0  0  0  0  0
  -24.5239   11.5743  -30.4706 O   0  0  0  0  0  0  0  0  0  0  0  0
  -21.4441   13.3916  -27.6006 O   0  0  0  0  0  0  0  0  0  0  0  0
  -22.0162   18.8557  -25.1889 O   0  0  0  0  0  0  0  0  0  0  0  0
  -23.1050   16.5006  -29.6201 O   0  0  0  0  0  0  0  0  0  0  0  0
  -20.6809   23.3946  -34.5050 H   0  0  0  0  0  0  0  0  0  0  0  0
  -18.4991   22.3429  -33.9832 H   0  0  0  0  0  0  0  0  0  0  0  0
  -22.6815   22.8271  -33.1886 H   0  0  0  0  0  0  0  0  0  0  0  0
  -18.3098   20.7194  -32.1428 H   0  0  0  0  0  0  0  0  0  0  0  0
  -23.7469   21.5378  -31.3329 H   0  0  0  0  0  0  0  0  0  0  0  0
  -23.5637   19.9199  -29.4976 H   0  0  0  0  0  0  0  0  0  0  0  0
  -19.3699   19.4357  -30.2937 H   0  0  0  0  0  0  0  0  0  0  0  0
  -20.0475   14.4071  -23.9040 H   0  0  0  0  0  0  0  0  0  0  0  0
  -21.0393   12.3797  -20.4247 H   0  0  0  0  0  0  0  0  0  0  0  0
  -22.8517   16.7506  -23.7959 H   0  0  0  0  0  0  0  0  0  0  0  0
  -19.8338   16.5234  -24.4127 H   0  0  0  0  0  0  0  0  0  0  0  0
  -22.4906   13.0985  -31.6635 H   0  0  0  0  0  0  0  0  0  0  0  0
  -23.7632   14.2226  -31.0095 H   0  0  0  0  0  0  0  0  0  0  0  0
  -20.9593   15.1304  -31.0820 H   0  0  0  0  0  0  0  0  0  0  0  0
  -20.2850   14.9268  -29.4419 H   0  0  0  0  0  0  0  0  0  0  0  0
  -19.3547   19.1533  -27.9207 H   0  0  0  0  0  0  0  0  0  0  0  0
  -20.6774   19.9590  -27.0674 H   0  0  0  0  0  0  0  0  0  0  0  0
  -22.3389   18.4655  -28.1915 H   0  0  0  0  0  0  0  0  0  0  0  0
  -22.6979   13.9226  -19.9664 H   0  0  0  0  0  0  0  0  0  0  0  0
  -23.3209   11.5442  -28.0739 H   0  0  0  0  0  0  0  0  0  0  0  0
  -19.5682   17.3120  -26.5830 H   0  0  0  0  0  0  0  0  0  0  0  0
  -19.9922   17.0049  -29.1672 H   0  0  0  0  0  0  0  0  0  0  0  0
  1  2  1  0  0  0  0
  1  3  2  0  0  0  0
  2  4  2  0  0  0  0
  3  8  1  0  0  0  0
  4  9  1  0  0  0  0
  5  6  2  0  0  0  0
  5  8  1  0  0  0  0
  6 10  1  0  0  0  0
  7  9  1  0  0  0  0
  7 10  2  0  0  0  0
  8  9  2  0  0  0  0
 10 24  1  0  0  0  0
 11 13  2  0  0  0  0
 11 25  1  0  0  0  0
 12 25  2  0  0  0  0
 12 26  1  0  0  0  0
 13 14  1  0  0  0  0
 13 17  1  0  0  0  0
 14 26  1  0  0  0  0
 14 31  2  0  0  0  0
 15 21  1  0  0  0  0
 15 27  1  0  0  0  0
 15 32  2  0  0  0  0
 16 27  1  0  0  0  0
 16 28  1  0  0  0  0
 16 33  2  0  0  0  0
 17 18  2  0  0  0  0
 18 19  1  0  0  0  0
 19 29  1  0  0  0  0
 19 34  2  0  0  0  0
 20 22  1  0  0  0  0
 20 30  1  0  0  0  0
 20 35  2  0  0  0  0
 21 28  1  0  0  0  0
 22 28  1  0  0  0  0
 23 24  1  0  0  0  0
 23 29  1  0  0  0  0
 24 30  1  0  0  0  0
  1 36  1  0  0  0  0
  2 37  1  0  0  0  0
  3 38  1  0  0  0  0
  4 39  1  0  0  0  0
  5 40  1  0  0  0  0
  6 41  1  0  0  0  0
  7 42  1  0  0  0  0
 11 43  1  0  0  0  0
 12 44  1  0  0  0  0
 17 45  1  0  0  0  0
 18 46  1  0  0  0  0
 21 47  1  0  0  0  0
 21 48  1  0  0  0  0
 22 49  1  0  0  0  0
 22 50  1  0  0  0  0
 23 51  1  0  0  0  0
 23 52  1  0  0  0  0
 24 53  1  0  0  0  0
 26 54  1  0  0  0  0
 27 55  1  0  0  0  0
 29 56  1  0  0  0  0
 30 57  1  0  0  0  0
M  END
> <FRED Chemgauss4 score>
-3.013128

$$$$
73
  -OEChem-08042116223D

 56 59  0     1  0  0  0  0  0999 V2000
  -22.5906   12.0678  -30.1648 C   0  0  0  0  0  0  0  0  0  0  0  0
  -23.2690   12.0770  -28.9358 C   0  0  0  0  0  0  0  0  0  0  0  0
  -21.6992   13.0910  -30.4942 C   0  0  0  0  0  0  0  0  0  0  0  0
  -23.0649   13.1090  -28.0174 C   0  0  0  0  0  0  0  0  0  0  0  0
  -18.5883   22.3885  -25.4659 C   0  0  0  0  0  0  0  0  0  0  0  0
  -17.0441   21.0220  -26.6510 C   0  0  0  0  0  0  0  0  0  0  0  0
  -16.2474   22.8080  -25.4454 C   0  0  0  0  0  0  0  0  0  0  0  0
  -18.3542   21.2949  -26.2921 C   0  0  0  0  0  0  0  0  0  0  0  0
  -21.5117   14.1170  -29.5832 C   0  0  0  0  0  0  0  0  0  0  0  0
  -22.1843   14.1246  -28.3539 C   0  0  0  0  0  0  0  0  0  0  0  0
  -17.5203   23.1648  -25.0301 C   0  0  0  0  0  0  0  0  0  0  0  0
  -20.6357   15.8699  -20.3776 C   0  0  0  0  0  0  0  0  0  0  0  0
  -20.5603   14.6015  -20.7786 C   0  0  0  0  0  0  0  0  0  0  0  0
  -20.3869   16.9800  -21.3165 C   0  0  0  0  0  0  0  0  0  0  0  0
  -20.2264   14.2520  -22.1762 C   0  0  0  0  0  0  0  0  0  0  0  0
  -19.4648   20.4539  -26.7724 C   0  0  0  0  0  0  0  0  0  0  0  0
  -19.3272   19.2018  -27.2329 C   0  0  0  0  0  0  0  0  0  0  0  0
  -20.5262   18.4397  -27.6848 C   0  0  0  0  0  0  0  0  0  0  0  0
  -20.7037   15.6638  -25.3106 C   0  0  0  0  0  0  0  0  0  0  0  0
  -20.5902   15.2921  -29.6996 C   0  0  0  0  0  0  0  0  0  0  0  0
  -21.7857   15.3132  -27.5289 C   0  0  2  0  0  0  0  0  0  0  0  0
  -21.1681   16.2243  -28.6177 C   0  0  1  0  0  0  0  0  0  0  0  0
  -17.7370   24.3409  -24.1456 C   0  0  0  0  0  0  0  0  0  0  0  0
  -19.6703   15.0363  -24.4104 C   0  0  0  0  0  0  0  0  0  0  0  0
  -15.9809   21.7530  -26.2475 N   0  0  0  0  0  0  0  0  0  0  0  0
  -20.0785   16.6280  -22.6054 N   0  0  0  0  0  0  0  0  0  0  0  0
  -20.0056   15.3138  -23.0061 N   0  0  0  0  0  0  0  0  0  0  0  0
  -20.1983   17.1645  -28.1287 N   0  0  0  0  0  0  0  0  0  0  0  0
  -20.8620   14.9424  -26.4891 N   0  0  0  0  0  0  0  0  0  0  0  0
  -20.4615   18.1430  -20.9258 O   0  0  0  0  0  0  0  0  0  0  0  0
  -20.1704   13.0656  -22.4959 O   0  0  0  0  0  0  0  0  0  0  0  0
  -21.6578   18.9123  -27.6552 O   0  0  0  0  0  0  0  0  0  0  0  0
  -21.3216   16.6850  -25.0211 O   0  0  0  0  0  0  0  0  0  0  0  0
  -22.7587   11.2532  -30.8642 H   0  0  0  0  0  0  0  0  0  0  0  0
  -23.9559   11.2699  -28.6961 H   0  0  0  0  0  0  0  0  0  0  0  0
  -21.1699   13.0769  -31.4406 H   0  0  0  0  0  0  0  0  0  0  0  0
  -23.5841   13.1090  -27.0649 H   0  0  0  0  0  0  0  0  0  0  0  0
  -19.6009   22.6416  -25.1591 H   0  0  0  0  0  0  0  0  0  0  0  0
  -16.7948   20.1828  -27.2945 H   0  0  0  0  0  0  0  0  0  0  0  0
  -15.3751   23.3762  -25.1371 H   0  0  0  0  0  0  0  0  0  0  0  0
  -20.8813   16.1183  -19.3514 H   0  0  0  0  0  0  0  0  0  0  0  0
  -20.7435   13.7877  -20.0858 H   0  0  0  0  0  0  0  0  0  0  0  0
  -20.4498   20.9115  -26.7146 H   0  0  0  0  0  0  0  0  0  0  0  0
  -18.3624   18.7083  -27.2811 H   0  0  0  0  0  0  0  0  0  0  0  0
  -19.5650   14.9800  -29.4717 H   0  0  0  0  0  0  0  0  0  0  0  0
  -20.6320   15.7550  -30.6901 H   0  0  0  0  0  0  0  0  0  0  0  0
  -22.6516   15.7953  -27.0633 H   0  0  0  0  0  0  0  0  0  0  0  0
  -21.9734   16.8244  -29.0660 H   0  0  0  0  0  0  0  0  0  0  0  0
  -17.6922   24.0429  -23.0895 H   0  0  0  0  0  0  0  0  0  0  0  0
  -16.9790   25.1183  -24.3168 H   0  0  0  0  0  0  0  0  0  0  0  0
  -18.7144   24.8088  -24.3306 H   0  0  0  0  0  0  0  0  0  0  0  0
  -19.6518   13.9540  -24.5692 H   0  0  0  0  0  0  0  0  0  0  0  0
  -18.6832   15.4519  -24.6329 H   0  0  0  0  0  0  0  0  0  0  0  0
  -19.8946   17.3399  -23.3055 H   0  0  0  0  0  0  0  0  0  0  0  0
  -19.2188   16.8814  -28.1061 H   0  0  0  0  0  0  0  0  0  0  0  0
  -20.2943   14.1074  -26.6234 H   0  0  0  0  0  0  0  0  0  0  0  0
  1  2  1  0  0  0  0
  1  3  2  0  0  0  0
  2  4  2  0  0  0  0
  3  9  1  0  0  0  0
  4 10  1  0  0  0  0
  5  8  2  0  0  0  0
  5 11  1  0  0  0  0
  6  8  1  0  0  0  0
  6 25  2  0  0  0  0
  7 11  2  0  0  0  0
  7 25  1  0  0  0  0
  8 16  1  0  0  0  0
  9 10  2  0  0  0  0
  9 20  1  0  0  0  0
 10 21  1  0  0  0  0
 11 23  1  0  0  0  0
 12 13  2  0  0  0  0
 12 14  1  0  0  0  0
 13 15  1  0  0  0  0
 14 26  1  0  0  0  0
 14 30  2  0  0  0  0
 15 27  1  0  0  0  0
 15 31  2  0  0  0  0
 16 17  2  0  0  0  0
 17 18  1  0  0  0  0
 18 28  1  0  0  0  0
 18 32  2  0  0  0  0
 19 24  1  0  0  0  0
 19 29  1  0  0  0  0
 19 33  2  0  0  0  0
 20 22  1  0  0  0  0
 21 22  1  0  0  0  0
 21 29  1  0  0  0  0
 22 28  1  0  0  0  0
 24 27  1  0  0  0  0
 26 27  1  0  0  0  0
  1 34  1  0  0  0  0
  2 35  1  0  0  0  0
  3 36  1  0  0  0  0
  4 37  1  0  0  0  0
  5 38  1  0  0  0  0
  6 39  1  0  0  0  0
  7 40  1  0  0  0  0
 12 41  1  0  0  0  0
 13 42  1  0  0  0  0
 16 43  1  0  0  0  0
 17 44  1  0  0  0  0
 20 45  1  0  0  0  0
 20 46  1  0  0  0  0
 21 47  1  0  0  0  0
 22 48  1  0  0  0  0
 23 49  1  0  0  0  0
 23 50  1  0  0  0  0
 23 51  1  0  0  0  0
 24 52  1  0  0  0  0
 24 53  1  0  0  0  0
 26 54  1  0  0  0  0
 28 55  1  0  0  0  0
 29 56  1  0  0  0  0
M  END
> <FRED Chemgauss4 score>
-9.374199

$$$$
15
  -OEChem-08042116223D

 53 55  0     1  0  0  0  0  0999 V2000
  -20.1386   21.2523  -33.2312 C   0  0  0  0  0  0  0  0  0  0  0  0
  -20.3728   21.7384  -31.9449 C   0  0  0  0  0  0  0  0  0  0  0  0
  -20.0759   19.8772  -33.4564 C   0  0  0  0  0  0  0  0  0  0  0  0
  -20.5443   20.8493  -30.8839 C   0  0  0  0  0  0  0  0  0  0  0  0
  -20.2474   18.9881  -32.3954 C   0  0  0  0  0  0  0  0  0  0  0  0
  -20.4816   19.4742  -31.1091 C   0  0  0  0  0  0  0  0  0  0  0  0
  -19.4370   14.6637  -23.4731 C   0  0  0  0  0  0  0  0  0  0  0  0
  -20.4006   15.5643  -23.7226 C   0  0  0  0  0  0  0  0  0  0  0  0
  -21.6790   15.4098  -22.9721 C   0  0  0  0  0  0  0  0  0  0  0  0
  -22.2072   13.5176  -28.2336 C   0  0  0  0  0  0  0  0  0  0  0  0
  -20.6189   13.4649  -21.9327 C   0  0  0  0  0  0  0  0  0  0  0  0
  -21.7517   13.7929  -30.4456 C   0  0  0  0  0  0  0  0  0  0  0  0
  -20.2333   16.6388  -24.6645 C   0  0  0  0  0  0  0  0  0  0  0  0
  -19.9753   16.4350  -25.9612 C   0  0  0  0  0  0  0  0  0  0  0  0
  -19.8132   17.5963  -26.8792 C   0  0  0  0  0  0  0  0  0  0  0  0
  -22.7185   17.1860  -30.4717 C   0  0  0  0  0  0  0  0  0  0  0  0
  -22.9961   14.7342  -28.6659 C   0  0  0  0  0  0  0  0  0  0  0  0
  -23.1278   15.8228  -30.9682 C   0  0  0  0  0  0  0  0  0  0  0  0
  -19.3513   18.1430  -29.2495 C   0  0  0  0  0  0  0  0  0  0  0  0
  -20.6679   18.5055  -29.9542 C   0  0  2  0  0  0  0  0  0  0  0  0
  -19.5063   13.6117  -22.5960 N   0  0  0  0  0  0  0  0  0  0  0  0
  -21.6889   14.3329  -22.1039 N   0  0  0  0  0  0  0  0  0  0  0  0
  -21.5166   13.0343  -29.3176 N   0  0  0  0  0  0  0  0  0  0  0  0
  -22.6246   14.7915  -30.0491 N   0  0  0  0  0  0  0  0  0  0  0  0
  -20.8108   12.4541  -21.0280 N   0  0  0  0  0  0  0  0  0  0  0  0
  -19.5516   17.1951  -28.1782 N   0  0  0  0  0  0  0  0  0  0  0  0
  -21.3485   17.2850  -30.4032 N   0  0  0  0  0  0  0  0  0  0  0  0
  -22.6263   16.1757  -23.1212 O   0  0  0  0  0  0  0  0  0  0  0  0
  -22.2044   13.0627  -27.0986 O   0  0  0  0  0  0  0  0  0  0  0  0
  -21.2745   13.6013  -31.5561 O   0  0  0  0  0  0  0  0  0  0  0  0
  -19.9026   18.7589  -26.4978 O   0  0  0  0  0  0  0  0  0  0  0  0
  -23.5217   18.0677  -30.1788 O   0  0  0  0  0  0  0  0  0  0  0  0
  -20.0065   21.9447  -34.0575 H   0  0  0  0  0  0  0  0  0  0  0  0
  -20.4227   22.8091  -31.7695 H   0  0  0  0  0  0  0  0  0  0  0  0
  -19.8947   19.4984  -34.4579 H   0  0  0  0  0  0  0  0  0  0  0  0
  -20.7262   21.2371  -29.8850 H   0  0  0  0  0  0  0  0  0  0  0  0
  -20.1968   17.9183  -32.5803 H   0  0  0  0  0  0  0  0  0  0  0  0
  -18.4860   14.7331  -23.9949 H   0  0  0  0  0  0  0  0  0  0  0  0
  -20.3305   17.6379  -24.2535 H   0  0  0  0  0  0  0  0  0  0  0  0
  -19.8781   15.4337  -26.3693 H   0  0  0  0  0  0  0  0  0  0  0  0
  -24.0697   14.5635  -28.5646 H   0  0  0  0  0  0  0  0  0  0  0  0
  -22.6574   15.6299  -28.1412 H   0  0  0  0  0  0  0  0  0  0  0  0
  -24.2189   15.7607  -31.0168 H   0  0  0  0  0  0  0  0  0  0  0  0
  -22.7104   15.6504  -31.9646 H   0  0  0  0  0  0  0  0  0  0  0  0
  -18.6551   17.6720  -29.9528 H   0  0  0  0  0  0  0  0  0  0  0  0
  -18.8496   19.0179  -28.8225 H   0  0  0  0  0  0  0  0  0  0  0  0
  -21.3245   18.9775  -29.2115 H   0  0  0  0  0  0  0  0  0  0  0  0
  -22.5303   14.1687  -21.5596 H   0  0  0  0  0  0  0  0  0  0  0  0
  -20.9105   12.2224  -29.2921 H   0  0  0  0  0  0  0  0  0  0  0  0
  -20.0688   11.8105  -20.8758 H   0  0  0  0  0  0  0  0  0  0  0  0
  -21.6849   12.4019  -20.5576 H   0  0  0  0  0  0  0  0  0  0  0  0
  -19.4643   16.2075  -28.3998 H   0  0  0  0  0  0  0  0  0  0  0  0
  -20.7921   16.4913  -30.6709 H   0  0  0  0  0  0  0  0  0  0  0  0
  1  2  1  0  0  0  0
  1  3  2  0  0  0  0
  2  4  2  0  0  0  0
  3  5  1  0  0  0  0
  4  6  1  0  0  0  0
  5  6  2  0  0  0  0
  6 20  1  0  0  0  0
  7  8  2  0  0  0  0
  7 21  1  0  0  0  0
  8  9  1  0  0  0  0
  8 13  1  0  0  0  0
  9 22  1  0  0  0  0
  9 28  2  0  0  0  0
 10 17  1  0  0  0  0
 10 23  1  0  0  0  0
 10 29  2  0  0  0  0
 11 21  2  0  0  0  0
 11 22  1  0  0  0  0
 11 25  1  0  0  0  0
 12 23  1  0  0  0  0
 12 24  1  0  0  0  0
 12 30  2  0  0  0  0
 13 14  2  0  0  0  0
 14 15  1  0  0  0  0
 15 26  1  0  0  0  0
 15 31  2  0  0  0  0
 16 18  1  0  0  0  0
 16 27  1  0  0  0  0
 16 32  2  0  0  0  0
 17 24  1  0  0  0  0
 18 24  1  0  0  0  0
 19 20  1  0  0  0  0
 19 26  1  0  0  0  0
 20 27  1  0  0  0  0
  1 33  1  0  0  0  0
  2 34  1  0  0  0  0
  3 35  1  0  0  0  0
  4 36  1  0  0  0  0
  5 37  1  0  0  0  0
  7 38  1  0  0  0  0
 13 39  1  0  0  0  0
 14 40  1  0  0  0  0
 17 41  1  0  0  0  0
 17 42  1  0  0  0  0
 18 43  1  0  0  0  0
 18 44  1  0  0  0  0
 19 45  1  0  0  0  0
 19 46  1  0  0  0  0
 20 47  1  0  0  0  0
 22 48  1  0  0  0  0
 23 49  1  0  0  0  0
 25 50  1  0  0  0  0
 25 51  1  0  0  0  0
 26 52  1  0  0  0  0
 27 53  1  0  0  0  0
M  END
> <FRED Chemgauss4 score>
-6.584570

$$$$
67
  -OEChem-08042116223D

 56 59  0     1  0  0  0  0  0999 V2000
  -20.5390   21.1457  -31.7184 C   0  0  0  0  0  0  0  0  0  0  0  0
  -21.7148   20.5725  -32.2281 C   0  0  0  0  0  0  0  0  0  0  0  0
  -20.0480   20.7699  -30.4663 C   0  0  0  0  0  0  0  0  0  0  0  0
  -22.4162   19.6139  -31.4937 C   0  0  0  0  0  0  0  0  0  0  0  0
  -20.7560   19.8277  -29.7391 C   0  0  0  0  0  0  0  0  0  0  0  0
  -21.9268   19.2510  -30.2490 C   0  0  0  0  0  0  0  0  0  0  0  0
  -20.0448   13.5286  -27.6131 C   0  0  0  0  0  0  0  0  0  0  0  0
  -21.3700   13.4942  -27.4798 C   0  0  0  0  0  0  0  0  0  0  0  0
  -20.1412   14.6033  -22.8544 C   0  0  0  0  0  0  0  0  0  0  0  0
  -21.2182   15.3951  -22.7467 C   0  0  0  0  0  0  0  0  0  0  0  0
  -19.4185   13.9951  -28.8644 C   0  0  0  0  0  0  0  0  0  0  0  0
  -22.2676   13.9212  -28.5747 C   0  0  0  0  0  0  0  0  0  0  0  0
  -22.2627   15.0264  -21.7580 C   0  0  0  0  0  0  0  0  0  0  0  0
  -20.8212   13.1441  -21.2631 C   0  0  0  0  0  0  0  0  0  0  0  0
  -21.3780   16.5716  -23.5546 C   0  0  0  0  0  0  0  0  0  0  0  0
  -21.4228   16.5371  -24.8926 C   0  0  0  0  0  0  0  0  0  0  0  0
  -21.5898   17.7983  -25.6665 C   0  0  0  0  0  0  0  0  0  0  0  0
  -23.0432   16.1498  -30.5450 C   0  0  0  0  0  0  0  0  0  0  0  0
  -20.4093   19.2490  -28.4018 C   0  0  0  0  0  0  0  0  0  0  0  0
  -22.4857   18.2345  -29.2969 C   0  0  2  0  0  0  0  0  0  0  0  0
  -21.7620   18.6377  -27.9890 C   0  0  1  0  0  0  0  0  0  0  0  0
  -20.6645   11.9170  -20.4125 C   0  0  0  0  0  0  0  0  0  0  0  0
  -22.4747   14.7851  -30.8390 C   0  0  0  0  0  0  0  0  0  0  0  0
  -19.9067   13.4637  -22.1252 N   0  0  0  0  0  0  0  0  0  0  0  0
  -21.9747   13.8717  -21.0537 N   0  0  0  0  0  0  0  0  0  0  0  0
  -20.2735   14.3841  -29.8633 N   0  0  0  0  0  0  0  0  0  0  0  0
  -21.6403   14.3449  -29.7114 N   0  0  0  0  0  0  0  0  0  0  0  0
  -21.6147   17.5727  -27.0363 N   0  0  0  0  0  0  0  0  0  0  0  0
  -22.1944   16.8938  -29.7325 N   0  0  0  0  0  0  0  0  0  0  0  0
  -18.1938   14.0186  -28.9665 O   0  0  0  0  0  0  0  0  0  0  0  0
  -23.4842   13.8712  -28.4008 O   0  0  0  0  0  0  0  0  0  0  0  0
  -23.2802   15.6918  -21.5915 O   0  0  0  0  0  0  0  0  0  0  0  0
  -21.6874   18.8967  -25.1288 O   0  0  0  0  0  0  0  0  0  0  0  0
  -24.1234   16.5401  -30.9803 O   0  0  0  0  0  0  0  0  0  0  0  0
  -20.0043   21.8862  -32.3072 H   0  0  0  0  0  0  0  0  0  0  0  0
  -22.0790   20.8752  -33.2060 H   0  0  0  0  0  0  0  0  0  0  0  0
  -19.1347   21.2079  -30.0787 H   0  0  0  0  0  0  0  0  0  0  0  0
  -23.3198   19.1665  -31.8938 H   0  0  0  0  0  0  0  0  0  0  0  0
  -19.3932   13.2141  -26.8058 H   0  0  0  0  0  0  0  0  0  0  0  0
  -21.8274   13.1504  -26.5586 H   0  0  0  0  0  0  0  0  0  0  0  0
  -19.3555   14.8403  -23.5666 H   0  0  0  0  0  0  0  0  0  0  0  0
  -21.4619   17.5067  -23.0091 H   0  0  0  0  0  0  0  0  0  0  0  0
  -21.3382   15.6017  -25.4371 H   0  0  0  0  0  0  0  0  0  0  0  0
  -19.6307   18.4874  -28.5209 H   0  0  0  0  0  0  0  0  0  0  0  0
  -20.0828   20.0140  -27.6911 H   0  0  0  0  0  0  0  0  0  0  0  0
  -23.5707   18.3318  -29.1870 H   0  0  0  0  0  0  0  0  0  0  0  0
  -22.3584   19.4135  -27.4872 H   0  0  0  0  0  0  0  0  0  0  0  0
  -20.1473   12.1784  -19.4926 H   0  0  0  0  0  0  0  0  0  0  0  0
  -20.0896   11.1708  -20.9559 H   0  0  0  0  0  0  0  0  0  0  0  0
  -21.6460   11.5118  -20.1780 H   0  0  0  0  0  0  0  0  0  0  0  0
  -23.2898   14.0700  -30.9846 H   0  0  0  0  0  0  0  0  0  0  0  0
  -21.8624   14.8256  -31.7446 H   0  0  0  0  0  0  0  0  0  0  0  0
  -22.6470   13.5597  -20.3589 H   0  0  0  0  0  0  0  0  0  0  0  0
  -19.9125   14.7161  -30.7523 H   0  0  0  0  0  0  0  0  0  0  0  0
  -21.4954   16.6249  -27.3919 H   0  0  0  0  0  0  0  0  0  0  0  0
  -21.3202   16.4675  -29.4297 H   0  0  0  0  0  0  0  0  0  0  0  0
  1  2  1  0  0  0  0
  1  3  2  0  0  0  0
  2  4  2  0  0  0  0
  3  5  1  0  0  0  0
  4  6  1  0  0  0  0
  5  6  2  0  0  0  0
  5 19  1  0  0  0  0
  6 20  1  0  0  0  0
  7  8  2  0  0  0  0
  7 11  1  0  0  0  0
  8 12  1  0  0  0  0
  9 10  2  0  0  0  0
  9 24  1  0  0  0  0
 10 13  1  0  0  0  0
 10 15  1  0  0  0  0
 11 26  1  0  0  0  0
 11 30  2  0  0  0  0
 12 27  1  0  0  0  0
 12 31  2  0  0  0  0
 13 25  1  0  0  0  0
 13 32  2  0  0  0  0
 14 22  1  0  0  0  0
 14 24  2  0  0  0  0
 14 25  1  0  0  0  0
 15 16  2  0  0  0  0
 16 17  1  0  0  0  0
 17 28  1  0  0  0  0
 17 33  2  0  0  0  0
 18 23  1  0  0  0  0
 18 29  1  0  0  0  0
 18 34  2  0  0  0  0
 19 21  1  0  0  0  0
 20 21  1  0  0  0  0
 20 29  1  0  0  0  0
 21 28  1  0  0  0  0
 23 27  1  0  0  0  0
 26 27  1  0  0  0  0
  1 35  1  0  0  0  0
  2 36  1  0  0  0  0
  3 37  1  0  0  0  0
  4 38  1  0  0  0  0
  7 39  1  0  0  0  0
  8 40  1  0  0  0  0
  9 41  1  0  0  0  0
 15 42  1  0  0  0  0
 16 43  1  0  0  0  0
 19 44  1  0  0  0  0
 19 45  1  0  0  0  0
 20 46  1  0  0  0  0
 21 47  1  0  0  0  0
 22 48  1  0  0  0  0
 22 49  1  0  0  0  0
 22 50  1  0  0  0  0
 23 51  1  0  0  0  0
 23 52  1  0  0  0  0
 25 53  1  0  0  0  0
 26 54  1  0  0  0  0
 28 55  1  0  0  0  0
 29 56  1  0  0  0  0
M  END
> <FRED Chemgauss4 score>
-7.008869

$$$$
63
  -OEChem-08042116223D

 53 56  0     1  0  0  0  0  0999 V2000
  -24.8036   16.3151  -32.1401 C   0  0  0  0  0  0  0  0  0  0  0  0
  -24.2566   17.6044  -32.0568 C   0  0  0  0  0  0  0  0  0  0  0  0
  -24.1515   15.2279  -31.5563 C   0  0  0  0  0  0  0  0  0  0  0  0
  -23.0507   17.8250  -31.3870 C   0  0  0  0  0  0  0  0  0  0  0  0
  -22.9628   15.4579  -30.8830 C   0  0  0  0  0  0  0  0  0  0  0  0
  -22.4157   16.7448  -30.7929 C   0  0  0  0  0  0  0  0  0  0  0  0
  -19.4871   21.2885  -25.6348 C   0  0  0  0  0  0  0  0  0  0  0  0
  -18.5461   23.1519  -24.7821 C   0  0  0  0  0  0  0  0  0  0  0  0
  -18.5066   21.0709  -26.5246 C   0  0  0  0  0  0  0  0  0  0  0  0
  -21.0932   15.1610  -24.6227 C   0  0  0  0  0  0  0  0  0  0  0  0
  -20.2827   16.2018  -24.4010 C   0  0  0  0  0  0  0  0  0  0  0  0
  -17.3681   22.0255  -26.5634 C   0  0  0  0  0  0  0  0  0  0  0  0
  -20.8003   14.2126  -23.5139 C   0  0  0  0  0  0  0  0  0  0  0  0
  -18.5345   19.9516  -27.4240 C   0  0  0  0  0  0  0  0  0  0  0  0
  -19.6714   19.4092  -27.8784 C   0  0  0  0  0  0  0  0  0  0  0  0
  -19.6244   18.2478  -28.8092 C   0  0  0  0  0  0  0  0  0  0  0  0
  -21.4049   14.5618  -26.9770 C   0  0  0  0  0  0  0  0  0  0  0  0
  -22.0775   14.4462  -30.2232 C   0  0  0  0  0  0  0  0  0  0  0  0
  -21.1031   16.7102  -30.0618 C   0  0  2  0  0  0  0  0  0  0  0  0
  -21.1828   15.3392  -29.3414 C   0  0  1  0  0  0  0  0  0  0  0  0
  -20.1489   17.4666  -25.1687 C   0  0  0  0  0  0  0  0  0  0  0  0
  -22.1092   14.8816  -25.6727 C   0  0  0  0  0  0  0  0  0  0  0  0
  -19.5412   22.3286  -24.7388 N   0  0  0  0  0  0  0  0  0  0  0  0
  -17.4764   23.0499  -25.6415 N   0  0  0  0  0  0  0  0  0  0  0  0
  -19.5282   15.9794  -23.2947 N   0  0  0  0  0  0  0  0  0  0  0  0
  -20.8927   17.8201  -29.1738 N   0  0  0  0  0  0  0  0  0  0  0  0
  -21.7317   15.4394  -28.0041 N   0  0  0  0  0  0  0  0  0  0  0  0
  -16.4289   21.9042  -27.3439 O   0  0  0  0  0  0  0  0  0  0  0  0
  -21.3288   13.1278  -23.3438 O   0  0  0  0  0  0  0  0  0  0  0  0
  -18.5711   17.7462  -29.1889 O   0  0  0  0  0  0  0  0  0  0  0  0
  -20.6262   13.6156  -27.0815 O   0  0  0  0  0  0  0  0  0  0  0  0
  -19.8361   14.7722  -22.7103 O   0  0  0  0  0  0  0  0  0  0  0  0
  -25.7452   16.1638  -32.6603 H   0  0  0  0  0  0  0  0  0  0  0  0
  -24.7793   18.4401  -32.5143 H   0  0  0  0  0  0  0  0  0  0  0  0
  -24.5697   14.2296  -31.6306 H   0  0  0  0  0  0  0  0  0  0  0  0
  -22.6258   18.8229  -31.3340 H   0  0  0  0  0  0  0  0  0  0  0  0
  -20.3355   20.6121  -25.5770 H   0  0  0  0  0  0  0  0  0  0  0  0
  -18.4849   24.0214  -24.1100 H   0  0  0  0  0  0  0  0  0  0  0  0
  -17.5643   19.5639  -27.7196 H   0  0  0  0  0  0  0  0  0  0  0  0
  -20.6410   19.7973  -27.5819 H   0  0  0  0  0  0  0  0  0  0  0  0
  -22.6889   13.7556  -29.6260 H   0  0  0  0  0  0  0  0  0  0  0  0
  -21.4828   13.8787  -30.9502 H   0  0  0  0  0  0  0  0  0  0  0  0
  -20.2463   16.6972  -30.7802 H   0  0  0  0  0  0  0  0  0  0  0  0
  -20.2062   14.9125  -29.2521 H   0  0  0  0  0  0  0  0  0  0  0  0
  -20.8331   18.2215  -24.7743 H   0  0  0  0  0  0  0  0  0  0  0  0
  -20.3813   17.2952  -26.2227 H   0  0  0  0  0  0  0  0  0  0  0  0
  -19.1261   17.8448  -25.0975 H   0  0  0  0  0  0  0  0  0  0  0  0
  -22.7388   15.7618  -25.8374 H   0  0  0  0  0  0  0  0  0  0  0  0
  -22.7550   14.0609  -25.3472 H   0  0  0  0  0  0  0  0  0  0  0  0
  -16.7399   23.7483  -25.6006 H   0  0  0  0  0  0  0  0  0  0  0  0
  -18.9282   16.6544  -22.8440 H   0  0  0  0  0  0  0  0  0  0  0  0
  -21.7127   18.2802  -28.7831 H   0  0  0  0  0  0  0  0  0  0  0  0
  -22.3908   16.1914  -27.8067 H   0  0  0  0  0  0  0  0  0  0  0  0
  1  2  1  0  0  0  0
  1  3  2  0  0  0  0
  2  4  2  0  0  0  0
  3  5  1  0  0  0  0
  4  6  1  0  0  0  0
  5  6  2  0  0  0  0
  5 18  1  0  0  0  0
  6 19  1  0  0  0  0
  7  9  2  0  0  0  0
  7 23  1  0  0  0  0
  8 23  2  0  0  0  0
  8 24  1  0  0  0  0
  9 12  1  0  0  0  0
  9 14  1  0  0  0  0
 10 11  2  0  0  0  0
 10 13  1  0  0  0  0
 10 22  1  0  0  0  0
 11 21  1  0  0  0  0
 11 25  1  0  0  0  0
 12 24  1  0  0  0  0
 12 28  2  0  0  0  0
 13 29  2  0  0  0  0
 13 32  1  0  0  0  0
 14 15  2  0  0  0  0
 15 16  1  0  0  0  0
 16 26  1  0  0  0  0
 16 30  2  0  0  0  0
 17 22  1  0  0  0  0
 17 27  1  0  0  0  0
 17 31  2  0  0  0  0
 18 20  1  0  0  0  0
 19 20  1  0  0  0  0
 19 26  1  0  0  0  0
 20 27  1  0  0  0  0
 25 32  1  0  0  0  0
  1 33  1  0  0  0  0
  2 34  1  0  0  0  0
  3 35  1  0  0  0  0
  4 36  1  0  0  0  0
  7 37  1  0  0  0  0
  8 38  1  0  0  0  0
 14 39  1  0  0  0  0
 15 40  1  0  0  0  0
 18 41  1  0  0  0  0
 18 42  1  0  0  0  0
 19 43  1  0  0  0  0
 20 44  1  0  0  0  0
 21 45  1  0  0  0  0
 21 46  1  0  0  0  0
 21 47  1  0  0  0  0
 22 48  1  0  0  0  0
 22 49  1  0  0  0  0
 24 50  1  0  0  0  0
 25 51  1  0  0  0  0
 26 52  1  0  0  0  0
 27 53  1  0  0  0  0
M  END
> <FRED Chemgauss4 score>
-10.297630

$$$$
90
  -OEChem-08042116223D

 55 58  0     1  0  0  0  0  0999 V2000
  -23.2146   12.1187  -29.7134 C   0  0  0  0  0  0  0  0  0  0  0  0
  -23.8742   13.1315  -29.0236 C   0  0  0  0  0  0  0  0  0  0  0  0
  -21.8293   12.1684  -29.8712 C   0  0  0  0  0  0  0  0  0  0  0  0
  -23.1510   14.1981  -28.4889 C   0  0  0  0  0  0  0  0  0  0  0  0
  -19.6905   13.3007  -29.4888 C   0  0  0  0  0  0  0  0  0  0  0  0
  -18.9673   14.3672  -28.9541 C   0  0  0  0  0  0  0  0  0  0  0  0
  -21.0122   15.3304  -28.1065 C   0  0  0  0  0  0  0  0  0  0  0  0
  -21.0854   13.2344  -29.3396 C   0  0  0  0  0  0  0  0  0  0  0  0
  -21.7561   14.2644  -28.6381 C   0  0  0  0  0  0  0  0  0  0  0  0
  -19.6269   15.3801  -28.2643 C   0  0  0  0  0  0  0  0  0  0  0  0
  -22.1749   21.1318  -32.2133 C   0  0  0  0  0  0  0  0  0  0  0  0
  -21.1784   21.8263  -31.6657 C   0  0  0  0  0  0  0  0  0  0  0  0
  -21.6488   15.0373  -22.9440 C   0  0  0  0  0  0  0  0  0  0  0  0
  -21.2154   15.9164  -23.8577 C   0  0  0  0  0  0  0  0  0  0  0  0
  -22.6972   19.9132  -31.5669 C   0  0  0  0  0  0  0  0  0  0  0  0
  -20.5555   21.4090  -30.3911 C   0  0  0  0  0  0  0  0  0  0  0  0
  -21.7623   17.3076  -23.8066 C   0  0  0  0  0  0  0  0  0  0  0  0
  -23.1245   16.6141  -21.8463 C   0  0  0  0  0  0  0  0  0  0  0  0
  -20.2292   15.4646  -24.8562 C   0  0  0  0  0  0  0  0  0  0  0  0
  -19.6239   18.6066  -28.8165 C   0  0  0  0  0  0  0  0  0  0  0  0
  -20.5006   19.8062  -28.5623 C   0  0  0  0  0  0  0  0  0  0  0  0
  -18.3458   16.2803  -26.2503 C   0  0  0  0  0  0  0  0  0  0  0  0
  -18.8519   16.5195  -27.6931 C   0  0  2  0  0  0  0  0  0  0  0  0
  -22.5617   15.3554  -21.9760 N   0  0  0  0  0  0  0  0  0  0  0  0
  -22.6821   17.5413  -22.7911 N   0  0  0  0  0  0  0  0  0  0  0  0
  -22.1012   19.5483  -30.3871 N   0  0  0  0  0  0  0  0  0  0  0  0
  -21.0739   20.2760  -29.8320 N   0  0  0  0  0  0  0  0  0  0  0  0
  -19.3907   16.4803  -25.2803 N   0  0  0  0  0  0  0  0  0  0  0  0
  -19.6251   17.7784  -27.7252 N   0  0  0  0  0  0  0  0  0  0  0  0
  -23.6170   19.2871  -32.0892 O   0  0  0  0  0  0  0  0  0  0  0  0
  -19.6391   22.0855  -29.9269 O   0  0  0  0  0  0  0  0  0  0  0  0
  -21.4074   18.1614  -24.6148 O   0  0  0  0  0  0  0  0  0  0  0  0
  -23.9458   16.8943  -20.9726 O   0  0  0  0  0  0  0  0  0  0  0  0
  -20.2066   14.2964  -25.2278 O   0  0  0  0  0  0  0  0  0  0  0  0
  -19.0117   18.4272  -29.8660 O   0  0  0  0  0  0  0  0  0  0  0  0
  -23.7784   11.2891  -30.1296 H   0  0  0  0  0  0  0  0  0  0  0  0
  -24.9527   13.0923  -28.9017 H   0  0  0  0  0  0  0  0  0  0  0  0
  -21.3349   11.3652  -30.4139 H   0  0  0  0  0  0  0  0  0  0  0  0
  -23.6876   14.9790  -27.9536 H   0  0  0  0  0  0  0  0  0  0  0  0
  -19.1541   12.5200  -30.0245 H   0  0  0  0  0  0  0  0  0  0  0  0
  -17.8885   14.3984  -29.0817 H   0  0  0  0  0  0  0  0  0  0  0  0
  -21.5159   16.1292  -27.5644 H   0  0  0  0  0  0  0  0  0  0  0  0
  -22.6267   21.4442  -33.1479 H   0  0  0  0  0  0  0  0  0  0  0  0
  -20.7966   22.7217  -32.1436 H   0  0  0  0  0  0  0  0  0  0  0  0
  -21.3022   14.0102  -22.9124 H   0  0  0  0  0  0  0  0  0  0  0  0
  -21.3112   19.5324  -27.8806 H   0  0  0  0  0  0  0  0  0  0  0  0
  -19.9083   20.6105  -28.1163 H   0  0  0  0  0  0  0  0  0  0  0  0
  -17.9908   15.2524  -26.1145 H   0  0  0  0  0  0  0  0  0  0  0  0
  -17.5223   16.9527  -25.9872 H   0  0  0  0  0  0  0  0  0  0  0  0
  -17.9547   16.7066  -28.3134 H   0  0  0  0  0  0  0  0  0  0  0  0
  -22.8406   14.6322  -21.3196 H   0  0  0  0  0  0  0  0  0  0  0  0
  -23.0703   18.4784  -22.7307 H   0  0  0  0  0  0  0  0  0  0  0  0
  -22.4092   18.7201  -29.8871 H   0  0  0  0  0  0  0  0  0  0  0  0
  -19.5186   17.4118  -24.8885 H   0  0  0  0  0  0  0  0  0  0  0  0
  -20.1674   18.0345  -26.9234 H   0  0  0  0  0  0  0  0  0  0  0  0
  1  2  1  0  0  0  0
  1  3  2  0  0  0  0
  2  4  2  0  0  0  0
  3  8  1  0  0  0  0
  4  9  1  0  0  0  0
  5  6  2  0  0  0  0
  5  8  1  0  0  0  0
  6 10  1  0  0  0  0
  7  9  1  0  0  0  0
  7 10  2  0  0  0  0
  8  9  2  0  0  0  0
 10 23  1  0  0  0  0
 11 12  2  0  0  0  0
 11 15  1  0  0  0  0
 12 16  1  0  0  0  0
 13 14  2  0  0  0  0
 13 24  1  0  0  0  0
 14 17  1  0  0  0  0
 14 19  1  0  0  0  0
 15 26  1  0  0  0  0
 15 30  2  0  0  0  0
 16 27  1  0  0  0  0
 16 31  2  0  0  0  0
 17 25  1  0  0  0  0
 17 32  2  0  0  0  0
 18 24  1  0  0  0  0
 18 25  1  0  0  0  0
 18 33  2  0  0  0  0
 19 28  1  0  0  0  0
 19 34  2  0  0  0  0
 20 21  1  0  0  0  0
 20 29  1  0  0  0  0
 20 35  2  0  0  0  0
 21 27  1  0  0  0  0
 22 23  1  0  0  0  0
 22 28  1  0  0  0  0
 23 29  1  0  0  0  0
 26 27  1  0  0  0  0
  1 36  1  0  0  0  0
  2 37  1  0  0  0  0
  3 38  1  0  0  0  0
  4 39  1  0  0  0  0
  5 40  1  0  0  0  0
  6 41  1  0  0  0  0
  7 42  1  0  0  0  0
 11 43  1  0  0  0  0
 12 44  1  0  0  0  0
 13 45  1  0  0  0  0
 21 46  1  0  0  0  0
 21 47  1  0  0  0  0
 22 48  1  0  0  0  0
 22 49  1  0  0  0  0
 23 50  1  0  0  0  0
 24 51  1  0  0  0  0
 25 52  1  0  0  0  0
 26 53  1  0  0  0  0
 28 54  1  0  0  0  0
 29 55  1  0  0  0  0
M  END
> <FRED Chemgauss4 score>
-6.046291

$$$$
71
  -OEChem-08042116223D

 53 56  0     1  0  0  0  0  0999 V2000
  -23.6766   16.2102  -31.6102 C   0  0  0  0  0  0  0  0  0  0  0  0
  -23.1720   17.5189  -31.5785 C   0  0  0  0  0  0  0  0  0  0  0  0
  -23.0753   15.1988  -30.8594 C   0  0  0  0  0  0  0  0  0  0  0  0
  -22.0602   17.8352  -30.7941 C   0  0  0  0  0  0  0  0  0  0  0  0
  -21.9811   15.5243  -30.0744 C   0  0  0  0  0  0  0  0  0  0  0  0
  -21.4772   16.8312  -30.0358 C   0  0  0  0  0  0  0  0  0  0  0  0
  -19.7903   14.6515  -21.1434 C   0  0  0  0  0  0  0  0  0  0  0  0
  -20.1312   15.9061  -21.4347 C   0  0  0  0  0  0  0  0  0  0  0  0
  -19.2880   21.8936  -24.9953 C   0  0  0  0  0  0  0  0  0  0  0  0
  -18.4971   23.8530  -24.2075 C   0  0  0  0  0  0  0  0  0  0  0  0
  -18.2035   21.6324  -25.7409 C   0  0  0  0  0  0  0  0  0  0  0  0
  -20.0915   13.5466  -22.0729 C   0  0  0  0  0  0  0  0  0  0  0  0
  -20.8222   16.2453  -22.6973 C   0  0  0  0  0  0  0  0  0  0  0  0
  -17.0898   22.6166  -25.7308 C   0  0  0  0  0  0  0  0  0  0  0  0
  -18.0989   20.4397  -26.5341 C   0  0  0  0  0  0  0  0  0  0  0  0
  -19.1610   19.8237  -27.0685 C   0  0  0  0  0  0  0  0  0  0  0  0
  -18.9773   18.5888  -27.8802 C   0  0  0  0  0  0  0  0  0  0  0  0
  -20.8863   15.0197  -25.9438 C   0  0  0  0  0  0  0  0  0  0  0  0
  -21.1591   14.6023  -29.2278 C   0  0  0  0  0  0  0  0  0  0  0  0
  -20.2612   16.9021  -29.1555 C   0  0  2  0  0  0  0  0  0  0  0  0
  -20.3963   15.5962  -28.3302 C   0  0  1  0  0  0  0  0  0  0  0  0
  -21.7622   15.4568  -24.7976 C   0  0  0  0  0  0  0  0  0  0  0  0
  -19.4719   23.0046  -24.2081 N   0  0  0  0  0  0  0  0  0  0  0  0
  -17.3302   23.7124  -24.9229 N   0  0  0  0  0  0  0  0  0  0  0  0
  -20.7335   13.8886  -23.2353 N   0  0  0  0  0  0  0  0  0  0  0  0
  -21.0781   15.1889  -23.5241 N   0  0  0  0  0  0  0  0  0  0  0  0
  -20.1830   18.0904  -28.3514 N   0  0  0  0  0  0  0  0  0  0  0  0
  -21.1035   15.7930  -27.0809 N   0  0  0  0  0  0  0  0  0  0  0  0
  -19.7686   12.3962  -21.7846 O   0  0  0  0  0  0  0  0  0  0  0  0
  -21.1143   17.4193  -22.9192 O   0  0  0  0  0  0  0  0  0  0  0  0
  -16.0615   22.4593  -26.3817 O   0  0  0  0  0  0  0  0  0  0  0  0
  -17.8753   18.0909  -28.0874 O   0  0  0  0  0  0  0  0  0  0  0  0
  -20.0829   14.0941  -25.8656 O   0  0  0  0  0  0  0  0  0  0  0  0
  -24.5456   15.9843  -32.2217 H   0  0  0  0  0  0  0  0  0  0  0  0
  -23.6545   18.2948  -32.1667 H   0  0  0  0  0  0  0  0  0  0  0  0
  -23.4595   14.1848  -30.8930 H   0  0  0  0  0  0  0  0  0  0  0  0
  -21.6667   18.8473  -30.7808 H   0  0  0  0  0  0  0  0  0  0  0  0
  -19.2836   14.4107  -20.2157 H   0  0  0  0  0  0  0  0  0  0  0  0
  -19.9085   16.7162  -20.7490 H   0  0  0  0  0  0  0  0  0  0  0  0
  -20.1221   21.1976  -24.9773 H   0  0  0  0  0  0  0  0  0  0  0  0
  -18.5360   24.7785  -23.6130 H   0  0  0  0  0  0  0  0  0  0  0  0
  -17.0919   20.0597  -26.6780 H   0  0  0  0  0  0  0  0  0  0  0  0
  -20.1674   20.2042  -26.9236 H   0  0  0  0  0  0  0  0  0  0  0  0
  -21.8223   13.9459  -28.6472 H   0  0  0  0  0  0  0  0  0  0  0  0
  -20.4693   13.9940  -29.8265 H   0  0  0  0  0  0  0  0  0  0  0  0
  -19.3244   16.8553  -29.7644 H   0  0  0  0  0  0  0  0  0  0  0  0
  -19.4283   15.2106  -28.0893 H   0  0  0  0  0  0  0  0  0  0  0  0
  -21.9667   16.5285  -24.8780 H   0  0  0  0  0  0  0  0  0  0  0  0
  -22.7065   14.9051  -24.8210 H   0  0  0  0  0  0  0  0  0  0  0  0
  -16.6196   24.4352  -24.8582 H   0  0  0  0  0  0  0  0  0  0  0  0
  -20.9726   13.1794  -23.9214 H   0  0  0  0  0  0  0  0  0  0  0  0
  -21.0539   18.5555  -28.1022 H   0  0  0  0  0  0  0  0  0  0  0  0
  -21.7978   16.5382  -27.0319 H   0  0  0  0  0  0  0  0  0  0  0  0
  1  2  1  0  0  0  0
  1  3  2  0  0  0  0
  2  4  2  0  0  0  0
  3  5  1  0  0  0  0
  4  6  1  0  0  0  0
  5  6  2  0  0  0  0
  5 19  1  0  0  0  0
  6 20  1  0  0  0  0
  7  8  2  0  0  0  0
  7 12  1  0  0  0  0
  8 13  1  0  0  0  0
  9 11  2  0  0  0  0
  9 23  1  0  0  0  0
 10 23  2  0  0  0  0
 10 24  1  0  0  0  0
 11 14  1  0  0  0  0
 11 15  1  0  0  0  0
 12 25  1  0  0  0  0
 12 29  2  0  0  0  0
 13 26  1  0  0  0  0
 13 30  2  0  0  0  0
 14 24  1  0  0  0  0
 14 31  2  0  0  0  0
 15 16  2  0  0  0  0
 16 17  1  0  0  0  0
 17 27  1  0  0  0  0
 17 32  2  0  0  0  0
 18 22  1  0  0  0  0
 18 28  1  0  0  0  0
 18 33  2  0  0  0  0
 19 21  1  0  0  0  0
 20 21  1  0  0  0  0
 20 27  1  0  0  0  0
 21 28  1  0  0  0  0
 22 26  1  0  0  0  0
 25 26  1  0  0  0  0
  1 34  1  0  0  0  0
  2 35  1  0  0  0  0
  3 36  1  0  0  0  0
  4 37  1  0  0  0  0
  7 38  1  0  0  0  0
  8 39  1  0  0  0  0
  9 40  1  0  0  0  0
 10 41  1  0  0  0  0
 15 42  1  0  0  0  0
 16 43  1  0  0  0  0
 19 44  1  0  0  0  0
 19 45  1  0  0  0  0
 20 46  1  0  0  0  0
 21 47  1  0  0  0  0
 22 48  1  0  0  0  0
 22 49  1  0  0  0  0
 24 50  1  0  0  0  0
 25 51  1  0  0  0  0
 27 52  1  0  0  0  0
 28 53  1  0  0  0  0
M  END
> <FRED Chemgauss4 score>
-10.940324

$$$$
97
  -OEChem-08042116223D

 55 58  0     1  0  0  0  0  0999 V2000
  -20.2538   13.5277  -22.3756 C   0  0  0  0  0  0  0  0  0  0  0  0
  -21.3871   14.1168  -21.8229 C   0  0  0  0  0  0  0  0  0  0  0  0
  -19.6191   14.1221  -23.4665 C   0  0  0  0  0  0  0  0  0  0  0  0
  -21.8900   15.3026  -22.3591 C   0  0  0  0  0  0  0  0  0  0  0  0
  -19.4853   15.9278  -25.1170 C   0  0  0  0  0  0  0  0  0  0  0  0
  -19.9882   17.1136  -25.6533 C   0  0  0  0  0  0  0  0  0  0  0  0
  -21.7563   17.1083  -24.0096 C   0  0  0  0  0  0  0  0  0  0  0  0
  -20.1114   15.3157  -24.0191 C   0  0  0  0  0  0  0  0  0  0  0  0
  -21.2639   15.9147  -23.4571 C   0  0  0  0  0  0  0  0  0  0  0  0
  -21.1215   17.7026  -25.1006 C   0  0  0  0  0  0  0  0  0  0  0  0
  -19.0134   21.6626  -27.5771 C   0  0  0  0  0  0  0  0  0  0  0  0
  -17.8792   21.9825  -25.4522 C   0  0  0  0  0  0  0  0  0  0  0  0
  -18.0540   22.3354  -28.2226 C   0  0  0  0  0  0  0  0  0  0  0  0
  -18.9126   21.4870  -26.1486 C   0  0  0  0  0  0  0  0  0  0  0  0
  -21.7479   14.5704  -29.2042 C   0  0  0  0  0  0  0  0  0  0  0  0
  -20.8586   13.5917  -29.0026 C   0  0  0  0  0  0  0  0  0  0  0  0
  -16.8076   22.7342  -26.1743 C   0  0  0  0  0  0  0  0  0  0  0  0
  -23.0400   13.8658  -29.4247 C   0  0  0  0  0  0  0  0  0  0  0  0
  -19.9509   20.7509  -25.4043 C   0  0  0  0  0  0  0  0  0  0  0  0
  -22.2531   16.6170  -27.9572 C   0  0  0  0  0  0  0  0  0  0  0  0
  -19.4063   13.6904  -28.7059 C   0  0  0  0  0  0  0  0  0  0  0  0
  -21.6277   16.0531  -29.2183 C   0  0  0  0  0  0  0  0  0  0  0  0
  -22.7136   18.7643  -26.7875 C   0  0  0  0  0  0  0  0  0  0  0  0
  -21.6576   18.9705  -25.6751 C   0  0  2  0  0  0  0  0  0  0  0  0
  -16.9809   22.8574  -27.5442 N   0  0  0  0  0  0  0  0  0  0  0  0
  -21.4673   12.3816  -29.0909 N   0  0  0  0  0  0  0  0  0  0  0  0
  -20.5784   19.8352  -26.1959 N   0  0  0  0  0  0  0  0  0  0  0  0
  -22.1844   18.0020  -27.8883 N   0  0  0  0  0  0  0  0  0  0  0  0
  -15.8518   23.1970  -25.5567 O   0  0  0  0  0  0  0  0  0  0  0  0
  -24.1142   14.3969  -29.6464 O   0  0  0  0  0  0  0  0  0  0  0  0
  -20.1602   20.9918  -24.2204 O   0  0  0  0  0  0  0  0  0  0  0  0
  -22.7635   15.8932  -27.1038 O   0  0  0  0  0  0  0  0  0  0  0  0
  -22.8162   12.5133  -29.3289 O   0  0  0  0  0  0  0  0  0  0  0  0
  -19.8633   12.6046  -21.9577 H   0  0  0  0  0  0  0  0  0  0  0  0
  -21.8809   13.6532  -20.9740 H   0  0  0  0  0  0  0  0  0  0  0  0
  -18.7343   13.6439  -23.8819 H   0  0  0  0  0  0  0  0  0  0  0  0
  -22.7774   15.7452  -21.9111 H   0  0  0  0  0  0  0  0  0  0  0  0
  -18.5981   15.4847  -25.5653 H   0  0  0  0  0  0  0  0  0  0  0  0
  -19.4879   17.5699  -26.5033 H   0  0  0  0  0  0  0  0  0  0  0  0
  -22.6420   17.5797  -23.5865 H   0  0  0  0  0  0  0  0  0  0  0  0
  -19.8614   21.2496  -28.1112 H   0  0  0  0  0  0  0  0  0  0  0  0
  -17.7737   21.8684  -24.3793 H   0  0  0  0  0  0  0  0  0  0  0  0
  -18.0704   22.5017  -29.2922 H   0  0  0  0  0  0  0  0  0  0  0  0
  -19.2439   13.7349  -27.6265 H   0  0  0  0  0  0  0  0  0  0  0  0
  -18.9875   14.5902  -29.1635 H   0  0  0  0  0  0  0  0  0  0  0  0
  -18.8792   12.8213  -29.1072 H   0  0  0  0  0  0  0  0  0  0  0  0
  -22.1649   16.4707  -30.0757 H   0  0  0  0  0  0  0  0  0  0  0  0
  -20.5745   16.3337  -29.3106 H   0  0  0  0  0  0  0  0  0  0  0  0
  -23.5836   18.2098  -26.4176 H   0  0  0  0  0  0  0  0  0  0  0  0
  -23.0748   19.7157  -27.1923 H   0  0  0  0  0  0  0  0  0  0  0  0
  -22.1515   19.5595  -24.8789 H   0  0  0  0  0  0  0  0  0  0  0  0
  -16.2818   23.3590  -28.0843 H   0  0  0  0  0  0  0  0  0  0  0  0
  -21.0489   11.4923  -28.8607 H   0  0  0  0  0  0  0  0  0  0  0  0
  -20.3010   19.7464  -27.1541 H   0  0  0  0  0  0  0  0  0  0  0  0
  -21.7379   18.5031  -28.6536 H   0  0  0  0  0  0  0  0  0  0  0  0
  1  2  1  0  0  0  0
  1  3  2  0  0  0  0
  2  4  2  0  0  0  0
  3  8  1  0  0  0  0
  4  9  1  0  0  0  0
  5  6  2  0  0  0  0
  5  8  1  0  0  0  0
  6 10  1  0  0  0  0
  7  9  1  0  0  0  0
  7 10  2  0  0  0  0
  8  9  2  0  0  0  0
 10 24  1  0  0  0  0
 11 13  2  0  0  0  0
 11 14  1  0  0  0  0
 12 14  2  0  0  0  0
 12 17  1  0  0  0  0
 13 25  1  0  0  0  0
 14 19  1  0  0  0  0
 15 16  2  0  0  0  0
 15 18  1  0  0  0  0
 15 22  1  0  0  0  0
 16 21  1  0  0  0  0
 16 26  1  0  0  0  0
 17 25  1  0  0  0  0
 17 29  2  0  0  0  0
 18 30  2  0  0  0  0
 18 33  1  0  0  0  0
 19 27  1  0  0  0  0
 19 31  2  0  0  0  0
 20 22  1  0  0  0  0
 20 28  1  0  0  0  0
 20 32  2  0  0  0  0
 23 24  1  0  0  0  0
 23 28  1  0  0  0  0
 24 27  1  0  0  0  0
 26 33  1  0  0  0  0
  1 34  1  0  0  0  0
  2 35  1  0  0  0  0
  3 36  1  0  0  0  0
  4 37  1  0  0  0  0
  5 38  1  0  0  0  0
  6 39  1  0  0  0  0
  7 40  1  0  0  0  0
 11 41  1  0  0  0  0
 12 42  1  0  0  0  0
 13 43  1  0  0  0  0
 21 44  1  0  0  0  0
 21 45  1  0  0  0  0
 21 46  1  0  0  0  0
 22 47  1  0  0  0  0
 22 48  1  0  0  0  0
 23 49  1  0  0  0  0
 23 50  1  0  0  0  0
 24 51  1  0  0  0  0
 25 52  1  0  0  0  0
 26 53  1  0  0  0  0
 27 54  1  0  0  0  0
 28 55  1  0  0  0  0
M  END
> <FRED Chemgauss4 score>
-7.401889

$$$$
82
  -OEChem-08042116223D

 55 58  0     1  0  0  0  0  0999 V2000
  -22.2438   12.8103  -29.1558 C   0  0  0  0  0  0  0  0  0  0  0  0
  -23.1598   13.8256  -28.8804 C   0  0  0  0  0  0  0  0  0  0  0  0
  -20.8748   13.0684  -29.0859 C   0  0  0  0  0  0  0  0  0  0  0  0
  -22.7069   15.0989  -28.5353 C   0  0  0  0  0  0  0  0  0  0  0  0
  -20.4218   14.3417  -28.7408 C   0  0  0  0  0  0  0  0  0  0  0  0
  -21.3378   15.3570  -28.4655 C   0  0  0  0  0  0  0  0  0  0  0  0
  -21.3572   18.7946  -22.4627 C   0  0  0  0  0  0  0  0  0  0  0  0
  -20.9475   17.7942  -21.6641 C   0  0  0  0  0  0  0  0  0  0  0  0
  -18.5423   22.7681  -24.2922 C   0  0  0  0  0  0  0  0  0  0  0  0
  -17.4814   22.8819  -25.0902 C   0  0  0  0  0  0  0  0  0  0  0  0
  -21.6436   18.5817  -23.8730 C   0  0  0  0  0  0  0  0  0  0  0  0
  -20.3723   15.4380  -21.4252 C   0  0  0  0  0  0  0  0  0  0  0  0
  -20.9092   14.9796  -24.1299 C   0  0  0  0  0  0  0  0  0  0  0  0
  -20.7804   16.4495  -22.2109 C   0  0  0  0  0  0  0  0  0  0  0  0
  -21.0694   16.2235  -23.6461 C   0  0  0  0  0  0  0  0  0  0  0  0
  -21.5123   17.3701  -24.4497 C   0  0  0  0  0  0  0  0  0  0  0  0
  -19.6895   21.9210  -24.6690 C   0  0  0  0  0  0  0  0  0  0  0  0
  -17.4068   22.1666  -26.3824 C   0  0  0  0  0  0  0  0  0  0  0  0
  -20.2038   14.0703  -21.9890 C   0  0  0  0  0  0  0  0  0  0  0  0
  -21.8355   17.3033  -25.8797 C   0  0  0  0  0  0  0  0  0  0  0  0
  -18.6010   19.1783  -27.6821 C   0  0  0  0  0  0  0  0  0  0  0  0
  -18.4822   20.6558  -27.9562 C   0  0  0  0  0  0  0  0  0  0  0  0
  -19.4905   17.0968  -28.7262 C   0  0  0  0  0  0  0  0  0  0  0  0
  -20.8439   16.7433  -28.0900 C   0  0  2  0  0  0  0  0  0  0  0  0
  -20.4925   13.9423  -23.3335 N   0  0  0  0  0  0  0  0  0  0  0  0
  -19.5947   21.2701  -25.8722 N   0  0  0  0  0  0  0  0  0  0  0  0
  -18.4923   21.3955  -26.6856 N   0  0  0  0  0  0  0  0  0  0  0  0
  -20.7671   16.8885  -26.6541 N   0  0  0  0  0  0  0  0  0  0  0  0
  -19.2439   18.5152  -28.7217 N   0  0  0  0  0  0  0  0  0  0  0  0
  -20.6584   21.8301  -23.9183 O   0  0  0  0  0  0  0  0  0  0  0  0
  -16.4046   22.3046  -27.0821 O   0  0  0  0  0  0  0  0  0  0  0  0
  -19.8310   13.1449  -21.2725 O   0  0  0  0  0  0  0  0  0  0  0  0
  -22.9580   17.5958  -26.2878 O   0  0  0  0  0  0  0  0  0  0  0  0
  -18.1742   18.6437  -26.6621 O   0  0  0  0  0  0  0  0  0  0  0  0
  -22.5967   11.8186  -29.4231 H   0  0  0  0  0  0  0  0  0  0  0  0
  -24.2259   13.6245  -28.9337 H   0  0  0  0  0  0  0  0  0  0  0  0
  -20.1613   12.2779  -29.2991 H   0  0  0  0  0  0  0  0  0  0  0  0
  -23.4279   15.8839  -28.3227 H   0  0  0  0  0  0  0  0  0  0  0  0
  -19.3533   14.5336  -28.6890 H   0  0  0  0  0  0  0  0  0  0  0  0
  -21.4851   19.7977  -22.0703 H   0  0  0  0  0  0  0  0  0  0  0  0
  -20.7392   17.9774  -20.6151 H   0  0  0  0  0  0  0  0  0  0  0  0
  -18.5896   23.2954  -23.3462 H   0  0  0  0  0  0  0  0  0  0  0  0
  -16.6397   23.5057  -24.8104 H   0  0  0  0  0  0  0  0  0  0  0  0
  -21.9675   19.4551  -24.4316 H   0  0  0  0  0  0  0  0  0  0  0  0
  -20.1512   15.5674  -20.3708 H   0  0  0  0  0  0  0  0  0  0  0  0
  -21.0910   14.7000  -25.1594 H   0  0  0  0  0  0  0  0  0  0  0  0
  -17.5454   20.8585  -28.4836 H   0  0  0  0  0  0  0  0  0  0  0  0
  -19.3235   20.9877  -28.5717 H   0  0  0  0  0  0  0  0  0  0  0  0
  -18.6691   16.6386  -28.1636 H   0  0  0  0  0  0  0  0  0  0  0  0
  -19.4127   16.7547  -29.7637 H   0  0  0  0  0  0  0  0  0  0  0  0
  -21.5798   17.4781  -28.4422 H   0  0  0  0  0  0  0  0  0  0  0  0
  -20.3945   13.0296  -23.7685 H   0  0  0  0  0  0  0  0  0  0  0  0
  -20.3472   20.6703  -26.1958 H   0  0  0  0  0  0  0  0  0  0  0  0
  -19.8875   16.6760  -26.1921 H   0  0  0  0  0  0  0  0  0  0  0  0
  -19.5569   19.0618  -29.5220 H   0  0  0  0  0  0  0  0  0  0  0  0
  1  2  1  0  0  0  0
  1  3  2  0  0  0  0
  2  4  2  0  0  0  0
  3  5  1  0  0  0  0
  4  6  1  0  0  0  0
  5  6  2  0  0  0  0
  6 24  1  0  0  0  0
  7  8  2  0  0  0  0
  7 11  1  0  0  0  0
  8 14  1  0  0  0  0
  9 10  2  0  0  0  0
  9 17  1  0  0  0  0
 10 18  1  0  0  0  0
 11 16  2  0  0  0  0
 12 14  2  0  0  0  0
 12 19  1  0  0  0  0
 13 15  2  0  0  0  0
 13 25  1  0  0  0  0
 14 15  1  0  0  0  0
 15 16  1  0  0  0  0
 16 20  1  0  0  0  0
 17 26  1  0  0  0  0
 17 30  2  0  0  0  0
 18 27  1  0  0  0  0
 18 31  2  0  0  0  0
 19 25  1  0  0  0  0
 19 32  2  0  0  0  0
 20 28  1  0  0  0  0
 20 33  2  0  0  0  0
 21 22  1  0  0  0  0
 21 29  1  0  0  0  0
 21 34  2  0  0  0  0
 22 27  1  0  0  0  0
 23 24  1  0  0  0  0
 23 29  1  0  0  0  0
 24 28  1  0  0  0  0
 26 27  1  0  0  0  0
  1 35  1  0  0  0  0
  2 36  1  0  0  0  0
  3 37  1  0  0  0  0
  4 38  1  0  0  0  0
  5 39  1  0  0  0  0
  7 40  1  0  0  0  0
  8 41  1  0  0  0  0
  9 42  1  0  0  0  0
 10 43  1  0  0  0  0
 11 44  1  0  0  0  0
 12 45  1  0  0  0  0
 13 46  1  0  0  0  0
 22 47  1  0  0  0  0
 22 48  1  0  0  0  0
 23 49  1  0  0  0  0
 23 50  1  0  0  0  0
 24 51  1  0  0  0  0
 25 52  1  0  0  0  0
 26 53  1  0  0  0  0
 28 54  1  0  0  0  0
 29 55  1  0  0  0  0
M  END
> <FRED Chemgauss4 score>
-9.008843

$$$$
80
  -OEChem-08042116223D

 53 56  0     1  0  0  0  0  0999 V2000
  -20.4247   13.6388  -20.5993 C   0  0  0  0  0  0  0  0  0  0  0  0
  -21.1042   14.8560  -20.4339 C   0  0  0  0  0  0  0  0  0  0  0  0
  -20.0024   13.2249  -21.8644 C   0  0  0  0  0  0  0  0  0  0  0  0
  -21.3701   15.6781  -21.5310 C   0  0  0  0  0  0  0  0  0  0  0  0
  -20.2807   14.0399  -22.9488 C   0  0  0  0  0  0  0  0  0  0  0  0
  -20.9542   15.2577  -22.7842 C   0  0  0  0  0  0  0  0  0  0  0  0
  -22.5725   14.5853  -30.7438 C   0  0  0  0  0  0  0  0  0  0  0  0
  -16.9885   20.9109  -26.0931 C   0  0  0  0  0  0  0  0  0  0  0  0
  -21.5108   14.3835  -29.9608 C   0  0  0  0  0  0  0  0  0  0  0  0
  -16.1872   22.9918  -25.7572 C   0  0  0  0  0  0  0  0  0  0  0  0
  -18.2402   21.2163  -25.7184 C   0  0  0  0  0  0  0  0  0  0  0  0
  -22.9291   15.9640  -31.1350 C   0  0  0  0  0  0  0  0  0  0  0  0
  -18.5269   22.6126  -25.2973 C   0  0  0  0  0  0  0  0  0  0  0  0
  -20.9732   16.7486  -29.8041 C   0  0  0  0  0  0  0  0  0  0  0  0
  -19.2910   20.2374  -25.7179 C   0  0  0  0  0  0  0  0  0  0  0  0
  -19.2452   19.1186  -24.9834 C   0  0  0  0  0  0  0  0  0  0  0  0
  -20.3722   18.1465  -25.0332 C   0  0  0  0  0  0  0  0  0  0  0  0
  -20.0812   14.3332  -27.4086 C   0  0  0  0  0  0  0  0  0  0  0  0
  -19.9009   13.8244  -24.3815 C   0  0  0  0  0  0  0  0  0  0  0  0
  -21.1004   15.9740  -24.0948 C   0  0  2  0  0  0  0  0  0  0  0  0
  -20.8503   14.8118  -25.0867 C   0  0  1  0  0  0  0  0  0  0  0  0
  -19.5841   15.0497  -28.6381 C   0  0  0  0  0  0  0  0  0  0  0  0
  -15.9257   21.7810  -26.1256 N   0  0  0  0  0  0  0  0  0  0  0  0
  -17.4220   23.4418  -25.3499 N   0  0  0  0  0  0  0  0  0  0  0  0
  -22.0903   16.9440  -30.6272 N   0  0  0  0  0  0  0  0  0  0  0  0
  -20.7240   15.4090  -29.4943 N   0  0  0  0  0  0  0  0  0  0  0  0
  -20.1526   17.0511  -24.2110 N   0  0  0  0  0  0  0  0  0  0  0  0
  -20.3592   15.2211  -26.3731 N   0  0  0  0  0  0  0  0  0  0  0  0
  -23.8989   16.1839  -31.8542 O   0  0  0  0  0  0  0  0  0  0  0  0
  -19.6415   22.9804  -24.9394 O   0  0  0  0  0  0  0  0  0  0  0  0
  -20.2974   17.7017  -29.4108 O   0  0  0  0  0  0  0  0  0  0  0  0
  -21.3649   18.3195  -25.7331 O   0  0  0  0  0  0  0  0  0  0  0  0
  -20.2203   13.1145  -27.3466 O   0  0  0  0  0  0  0  0  0  0  0  0
  -20.2224   13.0153  -19.7326 H   0  0  0  0  0  0  0  0  0  0  0  0
  -21.4217   15.1626  -19.4410 H   0  0  0  0  0  0  0  0  0  0  0  0
  -19.4700   12.2881  -21.9881 H   0  0  0  0  0  0  0  0  0  0  0  0
  -21.8878   16.6222  -21.3990 H   0  0  0  0  0  0  0  0  0  0  0  0
  -23.1842   13.7668  -31.1028 H   0  0  0  0  0  0  0  0  0  0  0  0
  -16.7410   19.9007  -26.4075 H   0  0  0  0  0  0  0  0  0  0  0  0
  -21.2312   13.3788  -29.6614 H   0  0  0  0  0  0  0  0  0  0  0  0
  -15.4116   23.7728  -25.7442 H   0  0  0  0  0  0  0  0  0  0  0  0
  -20.1392   20.4604  -26.3582 H   0  0  0  0  0  0  0  0  0  0  0  0
  -18.3964   18.8965  -24.3440 H   0  0  0  0  0  0  0  0  0  0  0  0
  -18.8475   14.0885  -24.5268 H   0  0  0  0  0  0  0  0  0  0  0  0
  -20.0799   12.7955  -24.7076 H   0  0  0  0  0  0  0  0  0  0  0  0
  -22.1064   16.3863  -24.2243 H   0  0  0  0  0  0  0  0  0  0  0  0
  -21.8074   14.3038  -25.2748 H   0  0  0  0  0  0  0  0  0  0  0  0
  -19.0530   15.9600  -28.3446 H   0  0  0  0  0  0  0  0  0  0  0  0
  -18.9056   14.3991  -29.1977 H   0  0  0  0  0  0  0  0  0  0  0  0
  -17.5295   24.4145  -25.0779 H   0  0  0  0  0  0  0  0  0  0  0  0
  -22.3065   17.9049  -30.8775 H   0  0  0  0  0  0  0  0  0  0  0  0
  -19.2819   16.9784  -23.6881 H   0  0  0  0  0  0  0  0  0  0  0  0
  -20.2060   16.2159  -26.5367 H   0  0  0  0  0  0  0  0  0  0  0  0
  1  2  1  0  0  0  0
  1  3  2  0  0  0  0
  2  4  2  0  0  0  0
  3  5  1  0  0  0  0
  4  6  1  0  0  0  0
  5  6  2  0  0  0  0
  5 19  1  0  0  0  0
  6 20  1  0  0  0  0
  7  9  2  0  0  0  0
  7 12  1  0  0  0  0
  8 11  2  0  0  0  0
  8 23  1  0  0  0  0
  9 26  1  0  0  0  0
 10 23  2  0  0  0  0
 10 24  1  0  0  0  0
 11 13  1  0  0  0  0
 11 15  1  0  0  0  0
 12 25  1  0  0  0  0
 12 29  2  0  0  0  0
 13 24  1  0  0  0  0
 13 30  2  0  0  0  0
 14 25  1  0  0  0  0
 14 26  1  0  0  0  0
 14 31  2  0  0  0  0
 15 16  2  0  0  0  0
 16 17  1  0  0  0  0
 17 27  1  0  0  0  0
 17 32  2  0  0  0  0
 18 22  1  0  0  0  0
 18 28  1  0  0  0  0
 18 33  2  0  0  0  0
 19 21  1  0  0  0  0
 20 21  1  0  0  0  0
 20 27  1  0  0  0  0
 21 28  1  0  0  0  0
 22 26  1  0  0  0  0
  1 34  1  0  0  0  0
  2 35  1  0  0  0  0
  3 36  1  0  0  0  0
  4 37  1  0  0  0  0
  7 38  1  0  0  0  0
  8 39  1  0  0  0  0
  9 40  1  0  0  0  0
 10 41  1  0  0  0  0
 15 42  1  0  0  0  0
 16 43  1  0  0  0  0
 19 44  1  0  0  0  0
 19 45  1  0  0  0  0
 20 46  1  0  0  0  0
 21 47  1  0  0  0  0
 22 48  1  0  0  0  0
 22 49  1  0  0  0  0
 24 50  1  0  0  0  0
 25 51  1  0  0  0  0
 27 52  1  0  0  0  0
 28 53  1  0  0  0  0
M  END
> <FRED Chemgauss4 score>
-10.667719

$$$$
70
  -OEChem-08042116223D

 53 56  0     1  0  0  0  0  0999 V2000
  -22.3877   12.2925  -30.0707 C   0  0  0  0  0  0  0  0  0  0  0  0
  -23.1788   12.4272  -28.9189 C   0  0  0  0  0  0  0  0  0  0  0  0
  -21.4120   13.2425  -30.3798 C   0  0  0  0  0  0  0  0  0  0  0  0
  -23.0049   13.5132  -28.0583 C   0  0  0  0  0  0  0  0  0  0  0  0
  -21.2541   14.3228  -29.5279 C   0  0  0  0  0  0  0  0  0  0  0  0
  -22.0396   14.4555  -28.3750 C   0  0  0  0  0  0  0  0  0  0  0  0
  -21.5605   16.0247  -20.3464 C   0  0  0  0  0  0  0  0  0  0  0  0
  -21.2889   14.7360  -20.5490 C   0  0  0  0  0  0  0  0  0  0  0  0
  -16.8237   21.3122  -26.8594 C   0  0  0  0  0  0  0  0  0  0  0  0
  -15.9619   22.9759  -25.6047 C   0  0  0  0  0  0  0  0  0  0  0  0
  -18.0923   21.5447  -26.4890 C   0  0  0  0  0  0  0  0  0  0  0  0
  -21.4332   17.0090  -21.4375 C   0  0  0  0  0  0  0  0  0  0  0  0
  -20.8511   14.2376  -21.8706 C   0  0  0  0  0  0  0  0  0  0  0  0
  -18.3538   22.6541  -25.5350 C   0  0  0  0  0  0  0  0  0  0  0  0
  -19.1840   20.7570  -26.9890 C   0  0  0  0  0  0  0  0  0  0  0  0
  -19.0551   19.4710  -27.3394 C   0  0  0  0  0  0  0  0  0  0  0  0
  -20.2316   18.7154  -27.8516 C   0  0  0  0  0  0  0  0  0  0  0  0
  -21.3938   15.0877  -25.1916 C   0  0  0  0  0  0  0  0  0  0  0  0
  -20.2601   15.4383  -29.6332 C   0  0  0  0  0  0  0  0  0  0  0  0
  -21.6545   15.6808  -27.5988 C   0  0  2  0  0  0  0  0  0  0  0  0
  -20.8846   16.4763  -28.6811 C   0  0  1  0  0  0  0  0  0  0  0  0
  -20.3199   14.7579  -24.1865 C   0  0  0  0  0  0  0  0  0  0  0  0
  -15.7220   22.0141  -26.4338 N   0  0  0  0  0  0  0  0  0  0  0  0
  -17.2101   23.3237  -25.1417 N   0  0  0  0  0  0  0  0  0  0  0  0
  -21.0247   16.5204  -22.6518 N   0  0  0  0  0  0  0  0  0  0  0  0
  -20.7492   15.1866  -22.8473 N   0  0  0  0  0  0  0  0  0  0  0  0
  -19.9139   17.4005  -28.1644 N   0  0  0  0  0  0  0  0  0  0  0  0
  -20.8571   15.3427  -26.4491 N   0  0  0  0  0  0  0  0  0  0  0  0
  -21.6885   18.1931  -21.2291 O   0  0  0  0  0  0  0  0  0  0  0  0
  -20.6138   13.0383  -22.0057 O   0  0  0  0  0  0  0  0  0  0  0  0
  -19.4813   22.9375  -25.1424 O   0  0  0  0  0  0  0  0  0  0  0  0
  -21.3413   19.2236  -27.9761 O   0  0  0  0  0  0  0  0  0  0  0  0
  -22.5902   15.1199  -24.9162 O   0  0  0  0  0  0  0  0  0  0  0  0
  -22.5344   11.4376  -30.7253 H   0  0  0  0  0  0  0  0  0  0  0  0
  -23.9305   11.6756  -28.6934 H   0  0  0  0  0  0  0  0  0  0  0  0
  -20.7962   13.1315  -31.2657 H   0  0  0  0  0  0  0  0  0  0  0  0
  -23.6119   13.6101  -27.1645 H   0  0  0  0  0  0  0  0  0  0  0  0
  -21.8812   16.3825  -19.3746 H   0  0  0  0  0  0  0  0  0  0  0  0
  -21.3832   14.0149  -19.7446 H   0  0  0  0  0  0  0  0  0  0  0  0
  -16.5937   20.5100  -27.5552 H   0  0  0  0  0  0  0  0  0  0  0  0
  -15.1547   23.6045  -25.1986 H   0  0  0  0  0  0  0  0  0  0  0  0
  -20.1362   21.2728  -27.0680 H   0  0  0  0  0  0  0  0  0  0  0  0
  -18.1024   18.9563  -27.2606 H   0  0  0  0  0  0  0  0  0  0  0  0
  -19.2809   15.0931  -29.2833 H   0  0  0  0  0  0  0  0  0  0  0  0
  -20.1805   15.8277  -30.6525 H   0  0  0  0  0  0  0  0  0  0  0  0
  -22.5319   16.2390  -27.2561 H   0  0  0  0  0  0  0  0  0  0  0  0
  -21.6077   17.0809  -29.2478 H   0  0  0  0  0  0  0  0  0  0  0  0
  -20.1411   13.6786  -24.1790 H   0  0  0  0  0  0  0  0  0  0  0  0
  -19.3935   15.2766  -24.4499 H   0  0  0  0  0  0  0  0  0  0  0  0
  -17.2984   24.0971  -24.4893 H   0  0  0  0  0  0  0  0  0  0  0  0
  -20.9150   17.1407  -23.4480 H   0  0  0  0  0  0  0  0  0  0  0  0
  -18.9538   17.0758  -28.0556 H   0  0  0  0  0  0  0  0  0  0  0  0
  -19.8464   15.2872  -26.5625 H   0  0  0  0  0  0  0  0  0  0  0  0
  1  2  1  0  0  0  0
  1  3  2  0  0  0  0
  2  4  2  0  0  0  0
  3  5  1  0  0  0  0
  4  6  1  0  0  0  0
  5  6  2  0  0  0  0
  5 19  1  0  0  0  0
  6 20  1  0  0  0  0
  7  8  2  0  0  0  0
  7 12  1  0  0  0  0
  8 13  1  0  0  0  0
  9 11  2  0  0  0  0
  9 23  1  0  0  0  0
 10 23  2  0  0  0  0
 10 24  1  0  0  0  0
 11 14  1  0  0  0  0
 11 15  1  0  0  0  0
 12 25  1  0  0  0  0
 12 29  2  0  0  0  0
 13 26  1  0  0  0  0
 13 30  2  0  0  0  0
 14 24  1  0  0  0  0
 14 31  2  0  0  0  0
 15 16  2  0  0  0  0
 16 17  1  0  0  0  0
 17 27  1  0  0  0  0
 17 32  2  0  0  0  0
 18 22  1  0  0  0  0
 18 28  1  0  0  0  0
 18 33  2  0  0  0  0
 19 21  1  0  0  0  0
 20 21  1  0  0  0  0
 20 28  1  0  0  0  0
 21 27  1  0  0  0  0
 22 26  1  0  0  0  0
 25 26  1  0  0  0  0
  1 34  1  0  0  0  0
  2 35  1  0  0  0  0
  3 36  1  0  0  0  0
  4 37  1  0  0  0  0
  7 38  1  0  0  0  0
  8 39  1  0  0  0  0
  9 40  1  0  0  0  0
 10 41  1  0  0  0  0
 15 42  1  0  0  0  0
 16 43  1  0  0  0  0
 19 44  1  0  0  0  0
 19 45  1  0  0  0  0
 20 46  1  0  0  0  0
 21 47  1  0  0  0  0
 22 48  1  0  0  0  0
 22 49  1  0  0  0  0
 24 50  1  0  0  0  0
 25 51  1  0  0  0  0
 27 52  1  0  0  0  0
 28 53  1  0  0  0  0
M  END
> <FRED Chemgauss4 score>
-9.548193

$$$$
95
  -OEChem-08042116223D

 54 57  0     1  0  0  0  0  0999 V2000
  -19.9112   13.2682  -28.2370 C   0  0  0  0  0  0  0  0  0  0  0  0
  -20.8124   13.5913  -27.2269 C   0  0  0  0  0  0  0  0  0  0  0  0
  -19.3373   14.2777  -29.0102 C   0  0  0  0  0  0  0  0  0  0  0  0
  -21.1431   14.9251  -26.9861 C   0  0  0  0  0  0  0  0  0  0  0  0
  -19.0905   16.6547  -29.5503 C   0  0  0  0  0  0  0  0  0  0  0  0
  -19.4212   17.9885  -29.3096 C   0  0  0  0  0  0  0  0  0  0  0  0
  -20.8964   17.3021  -27.5262 C   0  0  0  0  0  0  0  0  0  0  0  0
  -19.6586   15.6257  -28.7818 C   0  0  0  0  0  0  0  0  0  0  0  0
  -20.5751   15.9542  -27.7546 C   0  0  0  0  0  0  0  0  0  0  0  0
  -20.3224   18.3116  -28.2995 C   0  0  0  0  0  0  0  0  0  0  0  0
  -23.9023   14.5539  -31.8240 C   0  0  0  0  0  0  0  0  0  0  0  0
  -24.2547   15.3905  -32.7993 C   0  0  0  0  0  0  0  0  0  0  0  0
  -16.8172   21.0630  -26.6919 C   0  0  0  0  0  0  0  0  0  0  0  0
  -15.6084   22.8040  -25.9220 C   0  0  0  0  0  0  0  0  0  0  0  0
  -17.9578   21.4566  -26.1050 C   0  0  0  0  0  0  0  0  0  0  0  0
  -23.6096   15.0496  -30.4660 C   0  0  0  0  0  0  0  0  0  0  0  0
  -24.3685   16.8461  -32.5644 C   0  0  0  0  0  0  0  0  0  0  0  0
  -17.9402   22.7080  -25.3032 C   0  0  0  0  0  0  0  0  0  0  0  0
  -19.1635   20.6281  -26.2883 C   0  0  0  0  0  0  0  0  0  0  0  0
  -22.7996   19.2787  -30.8847 C   0  0  0  0  0  0  0  0  0  0  0  0
  -24.1837   18.6910  -30.9901 C   0  0  0  0  0  0  0  0  0  0  0  0
  -21.3317   20.4538  -29.2482 C   0  0  0  0  0  0  0  0  0  0  0  0
  -20.6746   19.7383  -28.0434 C   0  0  2  0  0  0  0  0  0  0  0  0
  -15.6113   21.7177  -26.6219 N   0  0  0  0  0  0  0  0  0  0  0  0
  -16.7023   23.3225  -25.2681 N   0  0  0  0  0  0  0  0  0  0  0  0
  -23.7217   16.4030  -30.2761 N   0  0  0  0  0  0  0  0  0  0  0  0
  -24.0882   17.2553  -31.2920 N   0  0  0  0  0  0  0  0  0  0  0  0
  -19.5011   20.5219  -27.6049 N   0  0  0  0  0  0  0  0  0  0  0  0
  -22.5711   19.8271  -29.6274 N   0  0  0  0  0  0  0  0  0  0  0  0
  -23.2859   14.2607  -29.5808 O   0  0  0  0  0  0  0  0  0  0  0  0
  -24.6984   17.5756  -33.4982 O   0  0  0  0  0  0  0  0  0  0  0  0
  -18.9426   23.1311  -24.7372 O   0  0  0  0  0  0  0  0  0  0  0  0
  -19.7323   20.1304  -25.3228 O   0  0  0  0  0  0  0  0  0  0  0  0
  -21.9870   19.2633  -31.8054 O   0  0  0  0  0  0  0  0  0  0  0  0
  -19.6547   12.2297  -28.4239 H   0  0  0  0  0  0  0  0  0  0  0  0
  -21.2592   12.8048  -26.6257 H   0  0  0  0  0  0  0  0  0  0  0  0
  -18.6350   14.0016  -29.7942 H   0  0  0  0  0  0  0  0  0  0  0  0
  -21.8503   15.1544  -26.1914 H   0  0  0  0  0  0  0  0  0  0  0  0
  -18.3837   16.4253  -30.3454 H   0  0  0  0  0  0  0  0  0  0  0  0
  -18.9698   18.7688  -29.9167 H   0  0  0  0  0  0  0  0  0  0  0  0
  -21.5998   17.5685  -26.7389 H   0  0  0  0  0  0  0  0  0  0  0  0
  -23.8212   13.4879  -32.0038 H   0  0  0  0  0  0  0  0  0  0  0  0
  -24.4690   15.0229  -33.7967 H   0  0  0  0  0  0  0  0  0  0  0  0
  -16.7903   20.1547  -27.2873 H   0  0  0  0  0  0  0  0  0  0  0  0
  -14.6975   23.4093  -25.7984 H   0  0  0  0  0  0  0  0  0  0  0  0
  -24.7141   18.8253  -30.0428 H   0  0  0  0  0  0  0  0  0  0  0  0
  -24.7386   19.1901  -31.7899 H   0  0  0  0  0  0  0  0  0  0  0  0
  -21.5721   21.4970  -29.0134 H   0  0  0  0  0  0  0  0  0  0  0  0
  -20.6820   20.4539  -30.1299 H   0  0  0  0  0  0  0  0  0  0  0  0
  -21.3997   19.7980  -27.2094 H   0  0  0  0  0  0  0  0  0  0  0  0
  -16.5969   24.1853  -24.7422 H   0  0  0  0  0  0  0  0  0  0  0  0
  -23.5347   16.8144  -29.3669 H   0  0  0  0  0  0  0  0  0  0  0  0
  -18.9397   20.9865  -28.2919 H   0  0  0  0  0  0  0  0  0  0  0  0
  -23.3200   19.7831  -28.9386 H   0  0  0  0  0  0  0  0  0  0  0  0
  1  2  1  0  0  0  0
  1  3  2  0  0  0  0
  2  4  2  0  0  0  0
  3  8  1  0  0  0  0
  4  9  1  0  0  0  0
  5  6  2  0  0  0  0
  5  8  1  0  0  0  0
  6 10  1  0  0  0  0
  7  9  1  0  0  0  0
  7 10  2  0  0  0  0
  8  9  2  0  0  0  0
 10 23  1  0  0  0  0
 11 12  2  0  0  0  0
 11 16  1  0  0  0  0
 12 17  1  0  0  0  0
 13 15  2  0  0  0  0
 13 24  1  0  0  0  0
 14 24  2  0  0  0  0
 14 25  1  0  0  0  0
 15 18  1  0  0  0  0
 15 19  1  0  0  0  0
 16 26  1  0  0  0  0
 16 30  2  0  0  0  0
 17 27  1  0  0  0  0
 17 31  2  0  0  0  0
 18 25  1  0  0  0  0
 18 32  2  0  0  0  0
 19 28  1  0  0  0  0
 19 33  2  0  0  0  0
 20 21  1  0  0  0  0
 20 29  1  0  0  0  0
 20 34  2  0  0  0  0
 21 27  1  0  0  0  0
 22 23  1  0  0  0  0
 22 29  1  0  0  0  0
 23 28  1  0  0  0  0
 26 27  1  0  0  0  0
  1 35  1  0  0  0  0
  2 36  1  0  0  0  0
  3 37  1  0  0  0  0
  4 38  1  0  0  0  0
  5 39  1  0  0  0  0
  6 40  1  0  0  0  0
  7 41  1  0  0  0  0
 11 42  1  0  0  0  0
 12 43  1  0  0  0  0
 13 44  1  0  0  0  0
 14 45  1  0  0  0  0
 21 46  1  0  0  0  0
 21 47  1  0  0  0  0
 22 48  1  0  0  0  0
 22 49  1  0  0  0  0
 23 50  1  0  0  0  0
 25 51  1  0  0  0  0
 26 52  1  0  0  0  0
 28 53  1  0  0  0  0
 29 54  1  0  0  0  0
M  END
> <FRED Chemgauss4 score>
-8.182399

$$$$
75
  -OEChem-08042116223D

 53 56  0     1  0  0  0  0  0999 V2000
  -22.4874   12.5498  -29.8201 C   0  0  0  0  0  0  0  0  0  0  0  0
  -23.2706   12.8352  -28.6906 C   0  0  0  0  0  0  0  0  0  0  0  0
  -21.5075   13.4459  -30.2525 C   0  0  0  0  0  0  0  0  0  0  0  0
  -23.0845   14.0204  -27.9758 C   0  0  0  0  0  0  0  0  0  0  0  0
  -21.3375   14.6244  -29.5454 C   0  0  0  0  0  0  0  0  0  0  0  0
  -22.1150   14.9080  -28.4147 C   0  0  0  0  0  0  0  0  0  0  0  0
  -21.5761   17.4987  -20.6571 C   0  0  0  0  0  0  0  0  0  0  0  0
  -21.3256   16.1845  -20.6537 C   0  0  0  0  0  0  0  0  0  0  0  0
  -21.4393   18.2748  -21.8598 C   0  0  0  0  0  0  0  0  0  0  0  0
  -16.7083   21.1405  -26.5403 C   0  0  0  0  0  0  0  0  0  0  0  0
  -21.0553   17.6779  -22.9933 C   0  0  0  0  0  0  0  0  0  0  0  0
  -15.7939   22.9728  -25.5961 C   0  0  0  0  0  0  0  0  0  0  0  0
  -17.9611   21.4400  -26.1643 C   0  0  0  0  0  0  0  0  0  0  0  0
  -20.8939   15.5012  -21.9112 C   0  0  0  0  0  0  0  0  0  0  0  0
  -18.1824   22.6879  -25.3879 C   0  0  0  0  0  0  0  0  0  0  0  0
  -19.0736   20.5935  -26.4931 C   0  0  0  0  0  0  0  0  0  0  0  0
  -19.1131   19.8368  -27.5972 C   0  0  0  0  0  0  0  0  0  0  0  0
  -20.3011   18.9830  -27.8747 C   0  0  0  0  0  0  0  0  0  0  0  0
  -21.4457   15.9345  -25.3407 C   0  0  0  0  0  0  0  0  0  0  0  0
  -20.3371   15.7104  -29.7967 C   0  0  0  0  0  0  0  0  0  0  0  0
  -21.7174   16.2191  -27.8023 C   0  0  2  0  0  0  0  0  0  0  0  0
  -20.9491   16.8653  -28.9810 C   0  0  1  0  0  0  0  0  0  0  0  0
  -20.3678   15.7273  -24.3075 C   0  0  0  0  0  0  0  0  0  0  0  0
  -15.5889   21.8904  -26.2718 N   0  0  0  0  0  0  0  0  0  0  0  0
  -17.0224   23.4005  -25.1477 N   0  0  0  0  0  0  0  0  0  0  0  0
  -20.7862   16.3256  -23.0314 N   0  0  0  0  0  0  0  0  0  0  0  0
  -19.9693   17.8406  -28.5908 N   0  0  0  0  0  0  0  0  0  0  0  0
  -20.9152   16.0240  -26.6232 N   0  0  0  0  0  0  0  0  0  0  0  0
  -20.6678   14.2926  -21.8806 O   0  0  0  0  0  0  0  0  0  0  0  0
  -19.2933   23.0399  -25.0032 O   0  0  0  0  0  0  0  0  0  0  0  0
  -21.4319   19.2819  -27.5045 O   0  0  0  0  0  0  0  0  0  0  0  0
  -22.6402   16.0099  -25.0653 O   0  0  0  0  0  0  0  0  0  0  0  0
  -22.6436   11.6197  -30.3601 H   0  0  0  0  0  0  0  0  0  0  0  0
  -24.0256   12.1237  -28.3676 H   0  0  0  0  0  0  0  0  0  0  0  0
  -20.8979   13.2189  -31.1203 H   0  0  0  0  0  0  0  0  0  0  0  0
  -23.6854   14.2343  -27.0983 H   0  0  0  0  0  0  0  0  0  0  0  0
  -21.8896   18.0080  -19.7527 H   0  0  0  0  0  0  0  0  0  0  0  0
  -21.4257   15.5874  -19.7551 H   0  0  0  0  0  0  0  0  0  0  0  0
  -21.6529   19.3365  -21.8242 H   0  0  0  0  0  0  0  0  0  0  0  0
  -16.5076   20.2367  -27.1091 H   0  0  0  0  0  0  0  0  0  0  0  0
  -20.9430   18.2346  -23.9170 H   0  0  0  0  0  0  0  0  0  0  0  0
  -14.9698   23.6500  -25.3244 H   0  0  0  0  0  0  0  0  0  0  0  0
  -19.8949   20.6024  -25.7828 H   0  0  0  0  0  0  0  0  0  0  0  0
  -18.2915   19.8290  -28.3069 H   0  0  0  0  0  0  0  0  0  0  0  0
  -19.3579   15.4054  -29.4110 H   0  0  0  0  0  0  0  0  0  0  0  0
  -20.2612   15.9667  -30.8577 H   0  0  0  0  0  0  0  0  0  0  0  0
  -22.5891   16.8225  -27.5287 H   0  0  0  0  0  0  0  0  0  0  0  0
  -21.6717   17.3982  -29.6159 H   0  0  0  0  0  0  0  0  0  0  0  0
  -20.1960   14.6565  -24.1640 H   0  0  0  0  0  0  0  0  0  0  0  0
  -19.4398   16.2018  -24.6395 H   0  0  0  0  0  0  0  0  0  0  0  0
  -17.0833   24.2677  -24.6224 H   0  0  0  0  0  0  0  0  0  0  0  0
  -19.0036   17.6924  -28.8815 H   0  0  0  0  0  0  0  0  0  0  0  0
  -19.9055   15.9473  -26.7339 H   0  0  0  0  0  0  0  0  0  0  0  0
  1  2  1  0  0  0  0
  1  3  2  0  0  0  0
  2  4  2  0  0  0  0
  3  5  1  0  0  0  0
  4  6  1  0  0  0  0
  5  6  2  0  0  0  0
  5 20  1  0  0  0  0
  6 21  1  0  0  0  0
  7  8  2  0  0  0  0
  7  9  1  0  0  0  0
  8 14  1  0  0  0  0
  9 11  2  0  0  0  0
 10 13  2  0  0  0  0
 10 24  1  0  0  0  0
 11 26  1  0  0  0  0
 12 24  2  0  0  0  0
 12 25  1  0  0  0  0
 13 15  1  0  0  0  0
 13 16  1  0  0  0  0
 14 26  1  0  0  0  0
 14 29  2  0  0  0  0
 15 25  1  0  0  0  0
 15 30  2  0  0  0  0
 16 17  2  0  0  0  0
 17 18  1  0  0  0  0
 18 27  1  0  0  0  0
 18 31  2  0  0  0  0
 19 23  1  0  0  0  0
 19 28  1  0  0  0  0
 19 32  2  0  0  0  0
 20 22  1  0  0  0  0
 21 22  1  0  0  0  0
 21 28  1  0  0  0  0
 22 27  1  0  0  0  0
 23 26  1  0  0  0  0
  1 33  1  0  0  0  0
  2 34  1  0  0  0  0
  3 35  1  0  0  0  0
  4 36  1  0  0  0  0
  7 37  1  0  0  0  0
  8 38  1  0  0  0  0
  9 39  1  0  0  0  0
 10 40  1  0  0  0  0
 11 41  1  0  0  0  0
 12 42  1  0  0  0  0
 16 43  1  0  0  0  0
 17 44  1  0  0  0  0
 20 45  1  0  0  0  0
 20 46  1  0  0  0  0
 21 47  1  0  0  0  0
 22 48  1  0  0  0  0
 23 49  1  0  0  0  0
 23 50  1  0  0  0  0
 25 51  1  0  0  0  0
 27 52  1  0  0  0  0
 28 53  1  0  0  0  0
M  END
> <FRED Chemgauss4 score>
-9.742619

$$$$
88
  -OEChem-08042116223D

 53 56  0     1  0  0  0  0  0999 V2000
  -20.8666   14.0066  -21.0550 C   0  0  0  0  0  0  0  0  0  0  0  0
  -21.4145   15.2797  -20.8320 C   0  0  0  0  0  0  0  0  0  0  0  0
  -20.5181   13.5968  -22.3437 C   0  0  0  0  0  0  0  0  0  0  0  0
  -21.6208   16.1624  -21.8942 C   0  0  0  0  0  0  0  0  0  0  0  0
  -20.7371   14.4734  -23.3931 C   0  0  0  0  0  0  0  0  0  0  0  0
  -21.2791   15.7464  -23.1711 C   0  0  0  0  0  0  0  0  0  0  0  0
  -23.3086   17.0025  -31.4107 C   0  0  0  0  0  0  0  0  0  0  0  0
  -22.4417   17.9113  -30.9494 C   0  0  0  0  0  0  0  0  0  0  0  0
  -23.1425   15.6051  -31.1155 C   0  0  0  0  0  0  0  0  0  0  0  0
  -16.8363   21.0829  -26.3989 C   0  0  0  0  0  0  0  0  0  0  0  0
  -22.1072   15.2040  -30.3698 C   0  0  0  0  0  0  0  0  0  0  0  0
  -15.8197   23.0591  -26.0169 C   0  0  0  0  0  0  0  0  0  0  0  0
  -18.0414   21.4998  -25.9812 C   0  0  0  0  0  0  0  0  0  0  0  0
  -21.2780   17.4806  -30.1159 C   0  0  0  0  0  0  0  0  0  0  0  0
  -18.1745   22.9022  -25.5073 C   0  0  0  0  0  0  0  0  0  0  0  0
  -19.1861   20.6326  -25.9845 C   0  0  0  0  0  0  0  0  0  0  0  0
  -19.2374   19.4898  -25.2883 C   0  0  0  0  0  0  0  0  0  0  0  0
  -20.4584   18.6388  -25.3396 C   0  0  0  0  0  0  0  0  0  0  0  0
  -20.6125   14.9013  -27.8448 C   0  0  0  0  0  0  0  0  0  0  0  0
  -20.4146   14.2710  -24.8418 C   0  0  0  0  0  0  0  0  0  0  0  0
  -21.3820   16.5193  -24.4534 C   0  0  2  0  0  0  0  0  0  0  0  0
  -21.2747   15.3734  -25.4889 C   0  0  1  0  0  0  0  0  0  0  0  0
  -20.0737   15.6066  -29.0632 C   0  0  0  0  0  0  0  0  0  0  0  0
  -15.6915   21.8418  -26.4315 N   0  0  0  0  0  0  0  0  0  0  0  0
  -16.9924   23.6170  -25.5624 N   0  0  0  0  0  0  0  0  0  0  0  0
  -21.1907   16.1090  -29.8765 N   0  0  0  0  0  0  0  0  0  0  0  0
  -20.3324   17.4986  -24.5596 N   0  0  0  0  0  0  0  0  0  0  0  0
  -20.7745   15.7758  -26.7739 N   0  0  0  0  0  0  0  0  0  0  0  0
  -20.4947   18.3358  -29.7060 O   0  0  0  0  0  0  0  0  0  0  0  0
  -19.2373   23.3679  -25.1081 O   0  0  0  0  0  0  0  0  0  0  0  0
  -21.4443   18.9356  -26.0067 O   0  0  0  0  0  0  0  0  0  0  0  0
  -20.8735   13.7015  -27.8188 O   0  0  0  0  0  0  0  0  0  0  0  0
  -20.7087   13.3358  -20.2147 H   0  0  0  0  0  0  0  0  0  0  0  0
  -21.6759   15.5817  -19.8215 H   0  0  0  0  0  0  0  0  0  0  0  0
  -20.0869   12.6160  -22.5120 H   0  0  0  0  0  0  0  0  0  0  0  0
  -22.0364   17.1488  -21.7178 H   0  0  0  0  0  0  0  0  0  0  0  0
  -24.1570   17.2999  -32.0167 H   0  0  0  0  0  0  0  0  0  0  0  0
  -22.5554   18.9674  -31.1632 H   0  0  0  0  0  0  0  0  0  0  0  0
  -23.8660   14.8987  -31.5050 H   0  0  0  0  0  0  0  0  0  0  0  0
  -16.7004   20.0645  -26.7525 H   0  0  0  0  0  0  0  0  0  0  0  0
  -21.9539   14.1579  -30.1292 H   0  0  0  0  0  0  0  0  0  0  0  0
  -14.9686   23.7569  -25.9993 H   0  0  0  0  0  0  0  0  0  0  0  0
  -20.0219   20.9624  -26.5943 H   0  0  0  0  0  0  0  0  0  0  0  0
  -18.4010   19.1608  -24.6793 H   0  0  0  0  0  0  0  0  0  0  0  0
  -19.3434   14.4324  -25.0065 H   0  0  0  0  0  0  0  0  0  0  0  0
  -20.7050   13.2775  -25.1963 H   0  0  0  0  0  0  0  0  0  0  0  0
  -22.3436   17.0354  -24.5424 H   0  0  0  0  0  0  0  0  0  0  0  0
  -22.2826   14.9715  -25.6678 H   0  0  0  0  0  0  0  0  0  0  0  0
  -19.4461   16.4478  -28.7545 H   0  0  0  0  0  0  0  0  0  0  0  0
  -19.4783   14.9109  -29.6615 H   0  0  0  0  0  0  0  0  0  0  0  0
  -16.9941   24.5854  -25.2561 H   0  0  0  0  0  0  0  0  0  0  0  0
  -19.4617   17.3201  -24.0628 H   0  0  0  0  0  0  0  0  0  0  0  0
  -20.5246   16.7552  -26.9090 H   0  0  0  0  0  0  0  0  0  0  0  0
  1  2  1  0  0  0  0
  1  3  2  0  0  0  0
  2  4  2  0  0  0  0
  3  5  1  0  0  0  0
  4  6  1  0  0  0  0
  5  6  2  0  0  0  0
  5 20  1  0  0  0  0
  6 21  1  0  0  0  0
  7  8  2  0  0  0  0
  7  9  1  0  0  0  0
  8 14  1  0  0  0  0
  9 11  2  0  0  0  0
 10 13  2  0  0  0  0
 10 24  1  0  0  0  0
 11 26  1  0  0  0  0
 12 24  2  0  0  0  0
 12 25  1  0  0  0  0
 13 15  1  0  0  0  0
 13 16  1  0  0  0  0
 14 26  1  0  0  0  0
 14 29  2  0  0  0  0
 15 25  1  0  0  0  0
 15 30  2  0  0  0  0
 16 17  2  0  0  0  0
 17 18  1  0  0  0  0
 18 27  1  0  0  0  0
 18 31  2  0  0  0  0
 19 23  1  0  0  0  0
 19 28  1  0  0  0  0
 19 32  2  0  0  0  0
 20 22  1  0  0  0  0
 21 22  1  0  0  0  0
 21 27  1  0  0  0  0
 22 28  1  0  0  0  0
 23 26  1  0  0  0  0
  1 33  1  0  0  0  0
  2 34  1  0  0  0  0
  3 35  1  0  0  0  0
  4 36  1  0  0  0  0
  7 37  1  0  0  0  0
  8 38  1  0  0  0  0
  9 39  1  0  0  0  0
 10 40  1  0  0  0  0
 11 41  1  0  0  0  0
 12 42  1  0  0  0  0
 16 43  1  0  0  0  0
 17 44  1  0  0  0  0
 20 45  1  0  0  0  0
 20 46  1  0  0  0  0
 21 47  1  0  0  0  0
 22 48  1  0  0  0  0
 23 49  1  0  0  0  0
 23 50  1  0  0  0  0
 25 51  1  0  0  0  0
 27 52  1  0  0  0  0
 28 53  1  0  0  0  0
M  END
> <FRED Chemgauss4 score>
-11.096430

$$$$
76
  -OEChem-08042116223D

 53 56  0     1  0  0  0  0  0999 V2000
  -21.9370   14.4215  -31.4442 C   0  0  0  0  0  0  0  0  0  0  0  0
  -21.5884   13.5575  -30.3952 C   0  0  0  0  0  0  0  0  0  0  0  0
  -17.3542   23.3648  -25.5544 C   0  0  0  0  0  0  0  0  0  0  0  0
  -18.5523   22.6595  -25.5310 C   0  0  0  0  0  0  0  0  0  0  0  0
  -22.5039   15.6689  -31.1783 C   0  0  0  0  0  0  0  0  0  0  0  0
  -21.7999   13.9295  -29.0654 C   0  0  0  0  0  0  0  0  0  0  0  0
  -16.2174   22.6981  -25.9821 C   0  0  0  0  0  0  0  0  0  0  0  0
  -17.3850   20.7525  -26.3417 C   0  0  0  0  0  0  0  0  0  0  0  0
  -18.5765   21.3279  -25.9306 C   0  0  0  0  0  0  0  0  0  0  0  0
  -22.6981   16.0348  -29.8563 C   0  0  0  0  0  0  0  0  0  0  0  0
  -22.3465   15.1772  -28.8055 C   0  0  0  0  0  0  0  0  0  0  0  0
  -21.9463   15.4113  -20.1539 C   0  0  0  0  0  0  0  0  0  0  0  0
  -21.4178   14.2962  -20.6564 C   0  0  0  0  0  0  0  0  0  0  0  0
  -22.1481   16.6042  -20.9977 C   0  0  0  0  0  0  0  0  0  0  0  0
  -21.0131   14.2050  -22.0758 C   0  0  0  0  0  0  0  0  0  0  0  0
  -19.8300   20.5531  -25.9168 C   0  0  0  0  0  0  0  0  0  0  0  0
  -20.0377   19.4293  -26.6186 C   0  0  0  0  0  0  0  0  0  0  0  0
  -21.3462   18.7219  -26.5196 C   0  0  0  0  0  0  0  0  0  0  0  0
  -22.0549   15.5796  -25.0876 C   0  0  0  0  0  0  0  0  0  0  0  0
  -23.3231   17.2943  -29.3407 C   0  0  0  0  0  0  0  0  0  0  0  0
  -22.7099   15.7883  -27.4815 C   0  0  2  0  0  0  0  0  0  0  0  0
  -22.8837   17.2811  -27.8635 C   0  0  1  0  0  0  0  0  0  0  0  0
  -20.8410   15.3109  -24.2354 C   0  0  0  0  0  0  0  0  0  0  0  0
  -16.2018   21.4055  -26.3778 N   0  0  0  0  0  0  0  0  0  0  0  0
  -21.7634   16.4928  -22.3091 N   0  0  0  0  0  0  0  0  0  0  0  0
  -21.2204   15.3343  -22.8151 N   0  0  0  0  0  0  0  0  0  0  0  0
  -21.6669   18.0492  -27.6924 N   0  0  0  0  0  0  0  0  0  0  0  0
  -21.7426   15.5647  -26.4427 N   0  0  0  0  0  0  0  0  0  0  0  0
  -22.6371   17.6229  -20.5140 O   0  0  0  0  0  0  0  0  0  0  0  0
  -20.5308   13.1523  -22.4908 O   0  0  0  0  0  0  0  0  0  0  0  0
  -22.0361   18.7499  -25.5057 O   0  0  0  0  0  0  0  0  0  0  0  0
  -23.1743   15.7820  -24.6245 O   0  0  0  0  0  0  0  0  0  0  0  0
  -21.7598   14.1172  -32.4719 H   0  0  0  0  0  0  0  0  0  0  0  0
  -21.1450   12.5913  -30.6201 H   0  0  0  0  0  0  0  0  0  0  0  0
  -17.3116   24.4035  -25.2476 H   0  0  0  0  0  0  0  0  0  0  0  0
  -19.4583   23.1603  -25.1992 H   0  0  0  0  0  0  0  0  0  0  0  0
  -22.7832   16.3318  -31.9904 H   0  0  0  0  0  0  0  0  0  0  0  0
  -21.5382   13.2533  -28.2570 H   0  0  0  0  0  0  0  0  0  0  0  0
  -15.2583   23.2041  -26.0177 H   0  0  0  0  0  0  0  0  0  0  0  0
  -17.3366   19.7168  -26.6660 H   0  0  0  0  0  0  0  0  0  0  0  0
  -22.2408   15.4705  -19.1123 H   0  0  0  0  0  0  0  0  0  0  0  0
  -21.2705   13.4210  -20.0334 H   0  0  0  0  0  0  0  0  0  0  0  0
  -20.6078   20.9439  -25.2648 H   0  0  0  0  0  0  0  0  0  0  0  0
  -19.2745   19.0006  -27.2593 H   0  0  0  0  0  0  0  0  0  0  0  0
  -22.9159   18.1573  -29.8856 H   0  0  0  0  0  0  0  0  0  0  0  0
  -24.4167   17.2822  -29.4324 H   0  0  0  0  0  0  0  0  0  0  0  0
  -23.6868   15.3886  -27.1121 H   0  0  0  0  0  0  0  0  0  0  0  0
  -23.6333   17.7339  -27.2497 H   0  0  0  0  0  0  0  0  0  0  0  0
  -20.4281   14.3282  -24.4817 H   0  0  0  0  0  0  0  0  0  0  0  0
  -20.0828   16.0782  -24.4173 H   0  0  0  0  0  0  0  0  0  0  0  0
  -21.8726   17.2744  -22.9478 H   0  0  0  0  0  0  0  0  0  0  0  0
  -21.0121   18.0984  -28.4728 H   0  0  0  0  0  0  0  0  0  0  0  0
  -20.7770   15.3858  -26.7132 H   0  0  0  0  0  0  0  0  0  0  0  0
  1  2  1  0  0  0  0
  1  5  2  0  0  0  0
  2  6  2  0  0  0  0
  3  4  2  0  0  0  0
  3  7  1  0  0  0  0
  4  9  1  0  0  0  0
  5 10  1  0  0  0  0
  6 11  1  0  0  0  0
  7 24  2  0  0  0  0
  8  9  2  0  0  0  0
  8 24  1  0  0  0  0
  9 16  1  0  0  0  0
 10 11  2  0  0  0  0
 10 20  1  0  0  0  0
 11 21  1  0  0  0  0
 12 13  2  0  0  0  0
 12 14  1  0  0  0  0
 13 15  1  0  0  0  0
 14 25  1  0  0  0  0
 14 29  2  0  0  0  0
 15 26  1  0  0  0  0
 15 30  2  0  0  0  0
 16 17  2  0  0  0  0
 17 18  1  0  0  0  0
 18 27  1  0  0  0  0
 18 31  2  0  0  0  0
 19 23  1  0  0  0  0
 19 28  1  0  0  0  0
 19 32  2  0  0  0  0
 20 22  1  0  0  0  0
 21 22  1  0  0  0  0
 21 28  1  0  0  0  0
 22 27  1  0  0  0  0
 23 26  1  0  0  0  0
 25 26  1  0  0  0  0
  1 33  1  0  0  0  0
  2 34  1  0  0  0  0
  3 35  1  0  0  0  0
  4 36  1  0  0  0  0
  5 37  1  0  0  0  0
  6 38  1  0  0  0  0
  7 39  1  0  0  0  0
  8 40  1  0  0  0  0
 12 41  1  0  0  0  0
 13 42  1  0  0  0  0
 16 43  1  0  0  0  0
 17 44  1  0  0  0  0
 20 45  1  0  0  0  0
 20 46  1  0  0  0  0
 21 47  1  0  0  0  0
 22 48  1  0  0  0  0
 23 49  1  0  0  0  0
 23 50  1  0  0  0  0
 25 51  1  0  0  0  0
 27 52  1  0  0  0  0
 28 53  1  0  0  0  0
M  END
> <FRED Chemgauss4 score>
-9.228817

$$$$
77
  -OEChem-08042116223D

 58 61  0     1  0  0  0  0  0999 V2000
  -24.4779   19.2424  -32.9241 C   0  0  0  0  0  0  0  0  0  0  0  0
  -24.6899   20.1620  -31.9012 C   0  0  0  0  0  0  0  0  0  0  0  0
  -23.8183   18.0420  -32.6585 C   0  0  0  0  0  0  0  0  0  0  0  0
  -24.2433   19.8848  -30.6089 C   0  0  0  0  0  0  0  0  0  0  0  0
  -22.6962   16.5431  -31.0784 C   0  0  0  0  0  0  0  0  0  0  0  0
  -22.2495   16.2659  -29.7861 C   0  0  0  0  0  0  0  0  0  0  0  0
  -23.1211   18.3859  -29.0287 C   0  0  0  0  0  0  0  0  0  0  0  0
  -23.3619   17.7464  -31.3637 C   0  0  0  0  0  0  0  0  0  0  0  0
  -23.5775   18.6815  -30.3236 C   0  0  0  0  0  0  0  0  0  0  0  0
  -22.4615   17.1855  -28.7633 C   0  0  0  0  0  0  0  0  0  0  0  0
  -20.2874   14.0499  -23.1096 C   0  0  0  0  0  0  0  0  0  0  0  0
  -22.1469   15.4642  -22.4343 C   0  0  0  0  0  0  0  0  0  0  0  0
  -19.9779   22.5503  -24.9061 C   0  0  0  0  0  0  0  0  0  0  0  0
  -18.6888   24.2655  -24.2122 C   0  0  0  0  0  0  0  0  0  0  0  0
  -21.3850   14.7475  -23.4189 C   0  0  0  0  0  0  0  0  0  0  0  0
  -19.0084   21.9753  -25.6340 C   0  0  0  0  0  0  0  0  0  0  0  0
  -21.7530   15.4410  -21.1505 C   0  0  0  0  0  0  0  0  0  0  0  0
  -19.8405   14.0160  -21.6864 C   0  0  0  0  0  0  0  0  0  0  0  0
  -17.6737   22.6285  -25.6680 C   0  0  0  0  0  0  0  0  0  0  0  0
  -19.2309   20.7608  -26.3674 C   0  0  0  0  0  0  0  0  0  0  0  0
  -20.1060   19.8244  -25.9795 C   0  0  0  0  0  0  0  0  0  0  0  0
  -21.7965   14.7581  -24.8347 C   0  0  0  0  0  0  0  0  0  0  0  0
  -20.2842   18.5879  -26.7899 C   0  0  0  0  0  0  0  0  0  0  0  0
  -22.4740   16.1520  -20.0505 C   0  0  0  0  0  0  0  0  0  0  0  0
  -23.0113   16.1316  -26.5062 C   0  0  0  0  0  0  0  0  0  0  0  0
  -21.9834   16.8872  -27.3822 C   0  0  2  0  0  0  0  0  0  0  0  0
  -19.8535   23.7068  -24.1749 N   0  0  0  0  0  0  0  0  0  0  0  0
  -17.6077   23.7864  -24.9156 N   0  0  0  0  0  0  0  0  0  0  0  0
  -20.6241   14.7302  -20.7931 N   0  0  0  0  0  0  0  0  0  0  0  0
  -22.5065   15.8948  -25.1788 N   0  0  0  0  0  0  0  0  0  0  0  0
  -21.5605   18.1124  -26.6725 N   0  0  0  0  0  0  0  0  0  0  0  0
  -18.8365   13.3840  -21.3673 O   0  0  0  0  0  0  0  0  0  0  0  0
  -16.7300   22.1731  -26.3066 O   0  0  0  0  0  0  0  0  0  0  0  0
  -21.5057   13.8265  -25.5769 O   0  0  0  0  0  0  0  0  0  0  0  0
  -19.3780   18.0962  -27.4549 O   0  0  0  0  0  0  0  0  0  0  0  0
  -24.8256   19.4593  -33.9297 H   0  0  0  0  0  0  0  0  0  0  0  0
  -25.2030   21.0965  -32.1088 H   0  0  0  0  0  0  0  0  0  0  0  0
  -23.6640   17.3379  -33.4738 H   0  0  0  0  0  0  0  0  0  0  0  0
  -24.4197   20.6184  -29.8248 H   0  0  0  0  0  0  0  0  0  0  0  0
  -22.5193   15.8097  -31.8627 H   0  0  0  0  0  0  0  0  0  0  0  0
  -21.7363   15.3286  -29.5879 H   0  0  0  0  0  0  0  0  0  0  0  0
  -23.2808   19.0966  -28.2194 H   0  0  0  0  0  0  0  0  0  0  0  0
  -19.6974   13.5023  -23.8357 H   0  0  0  0  0  0  0  0  0  0  0  0
  -23.0290   16.0135  -22.7451 H   0  0  0  0  0  0  0  0  0  0  0  0
  -20.9663   22.1018  -24.8571 H   0  0  0  0  0  0  0  0  0  0  0  0
  -18.4756   25.1958  -23.6639 H   0  0  0  0  0  0  0  0  0  0  0  0
  -18.6387   20.6434  -27.2700 H   0  0  0  0  0  0  0  0  0  0  0  0
  -20.6972   19.9425  -25.0766 H   0  0  0  0  0  0  0  0  0  0  0  0
  -23.2267   15.4937  -19.6186 H   0  0  0  0  0  0  0  0  0  0  0  0
  -22.9587   17.0447  -20.4448 H   0  0  0  0  0  0  0  0  0  0  0  0
  -21.7657   16.4472  -19.2771 H   0  0  0  0  0  0  0  0  0  0  0  0
  -23.9368   16.7064  -26.3868 H   0  0  0  0  0  0  0  0  0  0  0  0
  -23.2782   15.1589  -26.9329 H   0  0  0  0  0  0  0  0  0  0  0  0
  -21.0821   16.2468  -27.4313 H   0  0  0  0  0  0  0  0  0  0  0  0
  -16.7303   24.2973  -24.8837 H   0  0  0  0  0  0  0  0  0  0  0  0
  -20.3509   14.7307  -19.8143 H   0  0  0  0  0  0  0  0  0  0  0  0
  -22.6800   16.5958  -24.4605 H   0  0  0  0  0  0  0  0  0  0  0  0
  -22.2510   18.5411  -26.0885 H   0  0  0  0  0  0  0  0  0  0  0  0
  1  2  1  0  0  0  0
  1  3  2  0  0  0  0
  2  4  2  0  0  0  0
  3  8  1  0  0  0  0
  4  9  1  0  0  0  0
  5  6  2  0  0  0  0
  5  8  1  0  0  0  0
  6 10  1  0  0  0  0
  7  9  1  0  0  0  0
  7 10  2  0  0  0  0
  8  9  2  0  0  0  0
 10 26  1  0  0  0  0
 11 15  2  0  0  0  0
 11 18  1  0  0  0  0
 12 15  1  0  0  0  0
 12 17  2  0  0  0  0
 13 16  2  0  0  0  0
 13 27  1  0  0  0  0
 14 27  2  0  0  0  0
 14 28  1  0  0  0  0
 15 22  1  0  0  0  0
 16 19  1  0  0  0  0
 16 20  1  0  0  0  0
 17 24  1  0  0  0  0
 17 29  1  0  0  0  0
 18 29  1  0  0  0  0
 18 32  2  0  0  0  0
 19 28  1  0  0  0  0
 19 33  2  0  0  0  0
 20 21  2  0  0  0  0
 21 23  1  0  0  0  0
 22 30  1  0  0  0  0
 22 34  2  0  0  0  0
 23 31  1  0  0  0  0
 23 35  2  0  0  0  0
 25 26  1  0  0  0  0
 25 30  1  0  0  0  0
 26 31  1  0  0  0  0
  1 36  1  0  0  0  0
  2 37  1  0  0  0  0
  3 38  1  0  0  0  0
  4 39  1  0  0  0  0
  5 40  1  0  0  0  0
  6 41  1  0  0  0  0
  7 42  1  0  0  0  0
 11 43  1  0  0  0  0
 12 44  1  0  0  0  0
 13 45  1  0  0  0  0
 14 46  1  0  0  0  0
 20 47  1  0  0  0  0
 21 48  1  0  0  0  0
 24 49  1  0  0  0  0
 24 50  1  0  0  0  0
 24 51  1  0  0  0  0
 25 52  1  0  0  0  0
 25 53  1  0  0  0  0
 26 54  1  0  0  0  0
 28 55  1  0  0  0  0
 29 56  1  0  0  0  0
 30 57  1  0  0  0  0
 31 58  1  0  0  0  0
M  END
> <FRED Chemgauss4 score>
-6.406312

$$$$
79
  -OEChem-08042116223D

 58 61  0     1  0  0  0  0  0999 V2000
  -21.8598   13.8649  -19.6206 C   0  0  0  0  0  0  0  0  0  0  0  0
  -20.5694   13.5955  -20.0669 C   0  0  0  0  0  0  0  0  0  0  0  0
  -22.7934   14.4355  -20.4863 C   0  0  0  0  0  0  0  0  0  0  0  0
  -20.2076   13.8955  -21.3805 C   0  0  0  0  0  0  0  0  0  0  0  0
  -23.3735   15.3186  -22.6967 C   0  0  0  0  0  0  0  0  0  0  0  0
  -23.0117   15.6188  -24.0103 C   0  0  0  0  0  0  0  0  0  0  0  0
  -20.7877   14.7788  -23.5910 C   0  0  0  0  0  0  0  0  0  0  0  0
  -22.4466   14.7441  -21.8117 C   0  0  0  0  0  0  0  0  0  0  0  0
  -21.1344   14.4701  -22.2655 C   0  0  0  0  0  0  0  0  0  0  0  0
  -21.7213   15.3493  -24.4566 C   0  0  0  0  0  0  0  0  0  0  0  0
  -17.1411   20.6646  -26.6751 C   0  0  0  0  0  0  0  0  0  0  0  0
  -16.0400   22.5817  -26.2309 C   0  0  0  0  0  0  0  0  0  0  0  0
  -18.2682   21.0416  -26.0522 C   0  0  0  0  0  0  0  0  0  0  0  0
  -22.2935   16.2530  -30.5416 C   0  0  0  0  0  0  0  0  0  0  0  0
  -23.3568   16.8212  -31.1211 C   0  0  0  0  0  0  0  0  0  0  0  0
  -18.3052   22.3856  -25.4185 C   0  0  0  0  0  0  0  0  0  0  0  0
  -21.4723   17.3961  -30.0582 C   0  0  0  0  0  0  0  0  0  0  0  0
  -19.4206   20.1871  -25.9882 C   0  0  0  0  0  0  0  0  0  0  0  0
  -19.3380   18.8505  -25.9808 C   0  0  0  0  0  0  0  0  0  0  0  0
  -20.5766   18.0266  -25.9138 C   0  0  0  0  0  0  0  0  0  0  0  0
  -22.0844   14.4683  -28.8774 C   0  0  0  0  0  0  0  0  0  0  0  0
  -24.5319   16.1766  -31.7619 C   0  0  0  0  0  0  0  0  0  0  0  0
  -21.8963   14.8342  -30.3369 C   0  0  0  0  0  0  0  0  0  0  0  0
  -20.8936   14.4428  -26.6928 C   0  0  0  0  0  0  0  0  0  0  0  0
  -21.3364   15.6707  -25.8614 C   0  0  2  0  0  0  0  0  0  0  0  0
  -15.9958   21.4154  -26.7858 N   0  0  0  0  0  0  0  0  0  0  0  0
  -17.1270   23.0947  -25.5613 N   0  0  0  0  0  0  0  0  0  0  0  0
  -23.2597   18.1734  -31.0526 N   0  0  0  0  0  0  0  0  0  0  0  0
  -20.2718   16.6940  -25.9172 N   0  0  0  0  0  0  0  0  0  0  0  0
  -20.9547   14.7078  -28.1065 N   0  0  0  0  0  0  0  0  0  0  0  0
  -19.2929   22.8122  -24.8285 O   0  0  0  0  0  0  0  0  0  0  0  0
  -20.4093   17.3126  -29.4683 O   0  0  0  0  0  0  0  0  0  0  0  0
  -21.6985   18.5209  -25.8672 O   0  0  0  0  0  0  0  0  0  0  0  0
  -23.1440   14.0109  -28.4522 O   0  0  0  0  0  0  0  0  0  0  0  0
  -22.1211   18.5627  -30.3851 O   0  0  0  0  0  0  0  0  0  0  0  0
  -22.1403   13.6313  -18.5979 H   0  0  0  0  0  0  0  0  0  0  0  0
  -19.8431   13.1517  -19.3923 H   0  0  0  0  0  0  0  0  0  0  0  0
  -23.7964   14.6370  -20.1155 H   0  0  0  0  0  0  0  0  0  0  0  0
  -19.1931   13.6765  -21.7076 H   0  0  0  0  0  0  0  0  0  0  0  0
  -24.3878   15.5381  -22.3693 H   0  0  0  0  0  0  0  0  0  0  0  0
  -23.7449   16.0634  -24.6780 H   0  0  0  0  0  0  0  0  0  0  0  0
  -19.7815   14.5727  -23.9529 H   0  0  0  0  0  0  0  0  0  0  0  0
  -17.0767   19.6895  -27.1499 H   0  0  0  0  0  0  0  0  0  0  0  0
  -15.1799   23.2681  -26.2579 H   0  0  0  0  0  0  0  0  0  0  0  0
  -20.3791   20.6956  -25.9454 H   0  0  0  0  0  0  0  0  0  0  0  0
  -18.3792   18.3431  -26.0241 H   0  0  0  0  0  0  0  0  0  0  0  0
  -25.3211   16.0126  -31.0245 H   0  0  0  0  0  0  0  0  0  0  0  0
  -24.2462   15.2142  -32.1937 H   0  0  0  0  0  0  0  0  0  0  0  0
  -24.9215   16.8118  -32.5613 H   0  0  0  0  0  0  0  0  0  0  0  0
  -20.8393   14.6949  -30.5850 H   0  0  0  0  0  0  0  0  0  0  0  0
  -22.4854   14.1908  -30.9968 H   0  0  0  0  0  0  0  0  0  0  0  0
  -19.8564   14.1634  -26.4753 H   0  0  0  0  0  0  0  0  0  0  0  0
  -21.5207   13.5665  -26.4970 H   0  0  0  0  0  0  0  0  0  0  0  0
  -22.2013   16.1132  -26.3915 H   0  0  0  0  0  0  0  0  0  0  0  0
  -17.0660   24.0244  -25.1570 H   0  0  0  0  0  0  0  0  0  0  0  0
  -23.9830   18.8306  -31.3050 H   0  0  0  0  0  0  0  0  0  0  0  0
  -19.3351   16.3486  -25.9876 H   0  0  0  0  0  0  0  0  0  0  0  0
  -20.1291   15.0897  -28.5635 H   0  0  0  0  0  0  0  0  0  0  0  0
  1  2  1  0  0  0  0
  1  3  2  0  0  0  0
  2  4  2  0  0  0  0
  3  8  1  0  0  0  0
  4  9  1  0  0  0  0
  5  6  2  0  0  0  0
  5  8  1  0  0  0  0
  6 10  1  0  0  0  0
  7  9  1  0  0  0  0
  7 10  2  0  0  0  0
  8  9  2  0  0  0  0
 10 25  1  0  0  0  0
 11 13  2  0  0  0  0
 11 26  1  0  0  0  0
 12 26  2  0  0  0  0
 12 27  1  0  0  0  0
 13 16  1  0  0  0  0
 13 18  1  0  0  0  0
 14 15  2  0  0  0  0
 14 17  1  0  0  0  0
 14 23  1  0  0  0  0
 15 22  1  0  0  0  0
 15 28  1  0  0  0  0
 16 27  1  0  0  0  0
 16 31  2  0  0  0  0
 17 32  2  0  0  0  0
 17 35  1  0  0  0  0
 18 19  2  0  0  0  0
 19 20  1  0  0  0  0
 20 29  1  0  0  0  0
 20 33  2  0  0  0  0
 21 23  1  0  0  0  0
 21 30  1  0  0  0  0
 21 34  2  0  0  0  0
 24 25  1  0  0  0  0
 24 30  1  0  0  0  0
 25 29  1  0  0  0  0
 28 35  1  0  0  0  0
  1 36  1  0  0  0  0
  2 37  1  0  0  0  0
  3 38  1  0  0  0  0
  4 39  1  0  0  0  0
  5 40  1  0  0  0  0
  6 41  1  0  0  0  0
  7 42  1  0  0  0  0
 11 43  1  0  0  0  0
 12 44  1  0  0  0  0
 18 45  1  0  0  0  0
 19 46  1  0  0  0  0
 22 47  1  0  0  0  0
 22 48  1  0  0  0  0
 22 49  1  0  0  0  0
 23 50  1  0  0  0  0
 23 51  1  0  0  0  0
 24 52  1  0  0  0  0
 24 53  1  0  0  0  0
 25 54  1  0  0  0  0
 27 55  1  0  0  0  0
 28 56  1  0  0  0  0
 29 57  1  0  0  0  0
 30 58  1  0  0  0  0
M  END
> <FRED Chemgauss4 score>
-7.089932

$$$$
84
  -OEChem-08042116223D

 55 58  0     1  0  0  0  0  0999 V2000
  -23.0990   16.6055  -32.0380 C   0  0  0  0  0  0  0  0  0  0  0  0
  -22.6123   15.5367  -31.2705 C   0  0  0  0  0  0  0  0  0  0  0  0
  -23.5672   17.7671  -31.4218 C   0  0  0  0  0  0  0  0  0  0  0  0
  -22.5851   15.6149  -29.8761 C   0  0  0  0  0  0  0  0  0  0  0  0
  -23.5245   17.8411  -30.0390 C   0  0  0  0  0  0  0  0  0  0  0  0
  -23.0342   16.7780  -29.2689 C   0  0  0  0  0  0  0  0  0  0  0  0
  -17.2695   21.0531  -26.1307 C   0  0  0  0  0  0  0  0  0  0  0  0
  -20.7213   13.8009  -23.5442 C   0  0  0  0  0  0  0  0  0  0  0  0
  -15.9603   22.8543  -25.7748 C   0  0  0  0  0  0  0  0  0  0  0  0
  -18.3686   21.6136  -25.6030 C   0  0  0  0  0  0  0  0  0  0  0  0
  -21.0099   14.9354  -24.2013 C   0  0  0  0  0  0  0  0  0  0  0  0
  -18.2674   23.0005  -25.0782 C   0  0  0  0  0  0  0  0  0  0  0  0
  -21.6968   16.0139  -23.4361 C   0  0  0  0  0  0  0  0  0  0  0  0
  -21.5935   14.4750  -21.5698 C   0  0  0  0  0  0  0  0  0  0  0  0
  -19.6200   20.9121  -25.5381 C   0  0  0  0  0  0  0  0  0  0  0  0
  -20.2596   20.4592  -26.6239 C   0  0  0  0  0  0  0  0  0  0  0  0
  -21.5557   19.7402  -26.4810 C   0  0  0  0  0  0  0  0  0  0  0  0
  -21.9759   15.4055  -26.4023 C   0  0  0  0  0  0  0  0  0  0  0  0
  -24.0078   18.9608  -29.1700 C   0  0  0  0  0  0  0  0  0  0  0  0
  -23.1488   17.0911  -27.8035 C   0  0  2  0  0  0  0  0  0  0  0  0
  -23.3288   18.6312  -27.8262 C   0  0  1  0  0  0  0  0  0  0  0  0
  -21.9438   14.2856  -20.1223 C   0  0  0  0  0  0  0  0  0  0  0  0
  -20.6888   15.1782  -25.6334 C   0  0  0  0  0  0  0  0  0  0  0  0
  -16.0359   21.6489  -26.2346 N   0  0  0  0  0  0  0  0  0  0  0  0
  -20.9968   13.5311  -22.2277 N   0  0  0  0  0  0  0  0  0  0  0  0
  -17.0049   23.5483  -25.2089 N   0  0  0  0  0  0  0  0  0  0  0  0
  -21.9497   15.6897  -22.1161 N   0  0  0  0  0  0  0  0  0  0  0  0
  -22.0730   19.3444  -27.7072 N   0  0  0  0  0  0  0  0  0  0  0  0
  -22.0306   16.6498  -27.0165 N   0  0  0  0  0  0  0  0  0  0  0  0
  -19.2206   23.5905  -24.5792 O   0  0  0  0  0  0  0  0  0  0  0  0
  -22.0001   17.0845  -23.9533 O   0  0  0  0  0  0  0  0  0  0  0  0
  -22.0842   19.5387  -25.3923 O   0  0  0  0  0  0  0  0  0  0  0  0
  -22.8600   14.5523  -26.4587 O   0  0  0  0  0  0  0  0  0  0  0  0
  -23.1071   16.5286  -33.1216 H   0  0  0  0  0  0  0  0  0  0  0  0
  -22.2486   14.6410  -31.7669 H   0  0  0  0  0  0  0  0  0  0  0  0
  -23.9535   18.5887  -32.0156 H   0  0  0  0  0  0  0  0  0  0  0  0
  -22.2172   14.7811  -29.2856 H   0  0  0  0  0  0  0  0  0  0  0  0
  -17.3050   20.0410  -26.5245 H   0  0  0  0  0  0  0  0  0  0  0  0
  -20.2210   12.9917  -24.0681 H   0  0  0  0  0  0  0  0  0  0  0  0
  -15.0212   23.4276  -25.8063 H   0  0  0  0  0  0  0  0  0  0  0  0
  -20.0248   20.7675  -24.5409 H   0  0  0  0  0  0  0  0  0  0  0  0
  -19.8543   20.6048  -27.6205 H   0  0  0  0  0  0  0  0  0  0  0  0
  -23.6656   19.9205  -29.5816 H   0  0  0  0  0  0  0  0  0  0  0  0
  -25.1010   18.9689  -29.0739 H   0  0  0  0  0  0  0  0  0  0  0  0
  -24.0644   16.6218  -27.3655 H   0  0  0  0  0  0  0  0  0  0  0  0
  -23.9483   18.9420  -27.0117 H   0  0  0  0  0  0  0  0  0  0  0  0
  -21.1180   14.6266  -19.5028 H   0  0  0  0  0  0  0  0  0  0  0  0
  -22.1341   13.2321  -19.9306 H   0  0  0  0  0  0  0  0  0  0  0  0
  -22.8377   14.8590  -19.8884 H   0  0  0  0  0  0  0  0  0  0  0  0
  -20.1889   14.3053  -26.0650 H   0  0  0  0  0  0  0  0  0  0  0  0
  -20.0094   16.0315  -25.7161 H   0  0  0  0  0  0  0  0  0  0  0  0
  -16.8475   24.4945  -24.8748 H   0  0  0  0  0  0  0  0  0  0  0  0
  -22.4160   16.3727  -21.5261 H   0  0  0  0  0  0  0  0  0  0  0  0
  -21.5753   19.5843  -28.5638 H   0  0  0  0  0  0  0  0  0  0  0  0
  -21.2394   17.2805  -26.9034 H   0  0  0  0  0  0  0  0  0  0  0  0
  1  2  1  0  0  0  0
  1  3  2  0  0  0  0
  2  4  2  0  0  0  0
  3  5  1  0  0  0  0
  4  6  1  0  0  0  0
  5  6  2  0  0  0  0
  5 19  1  0  0  0  0
  6 20  1  0  0  0  0
  7 10  2  0  0  0  0
  7 24  1  0  0  0  0
  8 11  2  0  0  0  0
  8 25  1  0  0  0  0
  9 24  2  0  0  0  0
  9 26  1  0  0  0  0
 10 12  1  0  0  0  0
 10 15  1  0  0  0  0
 11 13  1  0  0  0  0
 11 23  1  0  0  0  0
 12 26  1  0  0  0  0
 12 30  2  0  0  0  0
 13 27  1  0  0  0  0
 13 31  2  0  0  0  0
 14 22  1  0  0  0  0
 14 25  2  0  0  0  0
 14 27  1  0  0  0  0
 15 16  2  0  0  0  0
 16 17  1  0  0  0  0
 17 28  1  0  0  0  0
 17 32  2  0  0  0  0
 18 23  1  0  0  0  0
 18 29  1  0  0  0  0
 18 33  2  0  0  0  0
 19 21  1  0  0  0  0
 20 21  1  0  0  0  0
 20 29  1  0  0  0  0
 21 28  1  0  0  0  0
  1 34  1  0  0  0  0
  2 35  1  0  0  0  0
  3 36  1  0  0  0  0
  4 37  1  0  0  0  0
  7 38  1  0  0  0  0
  8 39  1  0  0  0  0
  9 40  1  0  0  0  0
 15 41  1  0  0  0  0
 16 42  1  0  0  0  0
 19 43  1  0  0  0  0
 19 44  1  0  0  0  0
 20 45  1  0  0  0  0
 21 46  1  0  0  0  0
 22 47  1  0  0  0  0
 22 48  1  0  0  0  0
 22 49  1  0  0  0  0
 23 50  1  0  0  0  0
 23 51  1  0  0  0  0
 26 52  1  0  0  0  0
 27 53  1  0  0  0  0
 28 54  1  0  0  0  0
 29 55  1  0  0  0  0
M  END
> <FRED Chemgauss4 score>
-9.155127

$$$$
24
  -OEChem-08042116223D

 59 62  0     1  0  0  0  0  0999 V2000
  -23.7921   12.3643  -31.7496 C   0  0  0  0  0  0  0  0  0  0  0  0
  -23.6562   11.6866  -30.5286 C   0  0  0  0  0  0  0  0  0  0  0  0
  -23.3256   13.6720  -31.8921 C   0  0  0  0  0  0  0  0  0  0  0  0
  -23.0520   12.3067  -29.4321 C   0  0  0  0  0  0  0  0  0  0  0  0
  -22.7160   14.2746  -30.8038 C   0  0  0  0  0  0  0  0  0  0  0  0
  -22.5776   13.6007  -29.5819 C   0  0  0  0  0  0  0  0  0  0  0  0
  -20.7925   16.3464  -21.3158 C   0  0  0  0  0  0  0  0  0  0  0  0
  -19.2118   20.7595  -26.0051 C   0  0  0  0  0  0  0  0  0  0  0  0
  -21.0340   18.2812  -20.1829 C   0  0  0  0  0  0  0  0  0  0  0  0
  -21.6993   16.6580  -22.2544 C   0  0  0  0  0  0  0  0  0  0  0  0
  -18.7909   20.7238  -27.2779 C   0  0  0  0  0  0  0  0  0  0  0  0
  -22.3859   17.9728  -22.1595 C   0  0  0  0  0  0  0  0  0  0  0  0
  -18.2335   21.9677  -27.8666 C   0  0  0  0  0  0  0  0  0  0  0  0
  -18.6896   22.9403  -25.6960 C   0  0  0  0  0  0  0  0  0  0  0  0
  -22.0131   15.7616  -23.3317 C   0  0  0  0  0  0  0  0  0  0  0  0
  -18.8675   19.5273  -28.0684 C   0  0  0  0  0  0  0  0  0  0  0  0
  -21.1027   15.3407  -24.2190 C   0  0  0  0  0  0  0  0  0  0  0  0
  -20.0212   18.9022  -28.3356 C   0  0  0  0  0  0  0  0  0  0  0  0
  -21.5002   14.4108  -25.3121 C   0  0  0  0  0  0  0  0  0  0  0  0
  -20.0250   17.6637  -29.1625 C   0  0  0  0  0  0  0  0  0  0  0  0
  -22.1762   15.6691  -30.7154 C   0  0  0  0  0  0  0  0  0  0  0  0
  -21.9326   14.4946  -28.5557 C   0  0  2  0  0  0  0  0  0  0  0  0
  -21.2710   15.5479  -29.4767 C   0  0  2  0  0  0  0  0  0  0  0  0
  -18.6039   24.1968  -24.8789 C   0  0  0  0  0  0  0  0  0  0  0  0
  -20.9285   13.8037  -27.6434 C   0  0  0  0  0  0  0  0  0  0  0  0
  -20.4303   17.1409  -20.2549 N   0  0  0  0  0  0  0  0  0  0  0  0
  -19.1764   21.8554  -25.1786 N   0  0  0  0  0  0  0  0  0  0  0  0
  -21.9824   18.7280  -21.0741 N   0  0  0  0  0  0  0  0  0  0  0  0
  -18.2227   23.0377  -26.9907 N   0  0  0  0  0  0  0  0  0  0  0  0
  -21.0641   16.8094  -28.8201 N   0  0  0  0  0  0  0  0  0  0  0  0
  -20.7304   14.5781  -26.4629 N   0  0  0  0  0  0  0  0  0  0  0  0
  -23.2280   18.3400  -22.9730 O   0  0  0  0  0  0  0  0  0  0  0  0
  -17.8247   22.0271  -29.0221 O   0  0  0  0  0  0  0  0  0  0  0  0
  -22.4113   13.5982  -25.1911 O   0  0  0  0  0  0  0  0  0  0  0  0
  -19.1907   17.4486  -30.0359 O   0  0  0  0  0  0  0  0  0  0  0  0
  -24.2706   11.8674  -32.5891 H   0  0  0  0  0  0  0  0  0  0  0  0
  -24.0321   10.6715  -30.4337 H   0  0  0  0  0  0  0  0  0  0  0  0
  -23.4417   14.1989  -32.8332 H   0  0  0  0  0  0  0  0  0  0  0  0
  -22.9676   11.7798  -28.4878 H   0  0  0  0  0  0  0  0  0  0  0  0
  -20.2701   15.3944  -21.3522 H   0  0  0  0  0  0  0  0  0  0  0  0
  -19.6258   19.8694  -25.5394 H   0  0  0  0  0  0  0  0  0  0  0  0
  -20.8223   18.9979  -19.3748 H   0  0  0  0  0  0  0  0  0  0  0  0
  -23.0485   15.4393  -23.3864 H   0  0  0  0  0  0  0  0  0  0  0  0
  -17.9200   19.1521  -28.4434 H   0  0  0  0  0  0  0  0  0  0  0  0
  -20.0678   15.6640  -24.1637 H   0  0  0  0  0  0  0  0  0  0  0  0
  -20.9680   19.2778  -27.9597 H   0  0  0  0  0  0  0  0  0  0  0  0
  -21.6029   15.9500  -31.6039 H   0  0  0  0  0  0  0  0  0  0  0  0
  -23.0005   16.3737  -30.5595 H   0  0  0  0  0  0  0  0  0  0  0  0
  -22.7295   14.9537  -27.9552 H   0  0  0  0  0  0  0  0  0  0  0  0
  -20.2783   15.1971  -29.7949 H   0  0  0  0  0  0  0  0  0  0  0  0
  -17.6459   24.2297  -24.3659 H   0  0  0  0  0  0  0  0  0  0  0  0
  -19.4102   24.2100  -24.1493 H   0  0  0  0  0  0  0  0  0  0  0  0
  -18.6987   25.0606  -25.5327 H   0  0  0  0  0  0  0  0  0  0  0  0
  -21.3347   12.8239  -27.3923 H   0  0  0  0  0  0  0  0  0  0  0  0
  -19.9946   13.7085  -28.1974 H   0  0  0  0  0  0  0  0  0  0  0  0
  -22.4025   19.6420  -20.9335 H   0  0  0  0  0  0  0  0  0  0  0  0
  -17.8539   23.9225  -27.3271 H   0  0  0  0  0  0  0  0  0  0  0  0
  -21.6918   17.0605  -28.0577 H   0  0  0  0  0  0  0  0  0  0  0  0
  -20.0116   15.3083  -26.4703 H   0  0  0  0  0  0  0  0  0  0  0  0
  1  2  1  0  0  0  0
  1  3  2  0  0  0  0
  2  4  2  0  0  0  0
  3  5  1  0  0  0  0
  4  6  1  0  0  0  0
  5  6  2  0  0  0  0
  5 21  1  0  0  0  0
  6 22  1  0  0  0  0
  7 10  2  0  0  0  0
  7 26  1  0  0  0  0
  8 11  2  0  0  0  0
  8 27  1  0  0  0  0
  9 26  2  0  0  0  0
  9 28  1  0  0  0  0
 10 12  1  0  0  0  0
 10 15  1  0  0  0  0
 11 13  1  0  0  0  0
 11 16  1  0  0  0  0
 12 28  1  0  0  0  0
 12 32  2  0  0  0  0
 13 29  1  0  0  0  0
 13 33  2  0  0  0  0
 14 24  1  0  0  0  0
 14 27  2  0  0  0  0
 14 29  1  0  0  0  0
 15 17  2  0  0  0  0
 16 18  2  0  0  0  0
 17 19  1  0  0  0  0
 18 20  1  0  0  0  0
 19 31  1  0  0  0  0
 19 34  2  0  0  0  0
 20 30  1  0  0  0  0
 20 35  2  0  0  0  0
 21 23  1  0  0  0  0
 22 23  1  0  0  0  0
 22 25  1  0  0  0  0
 23 30  1  0  0  0  0
 25 31  1  0  0  0  0
  1 36  1  0  0  0  0
  2 37  1  0  0  0  0
  3 38  1  0  0  0  0
  4 39  1  0  0  0  0
  7 40  1  0  0  0  0
  8 41  1  0  0  0  0
  9 42  1  0  0  0  0
 15 43  1  0  0  0  0
 16 44  1  0  0  0  0
 17 45  1  0  0  0  0
 18 46  1  0  0  0  0
 21 47  1  0  0  0  0
 21 48  1  0  0  0  0
 22 49  1  0  0  0  0
 23 50  1  0  0  0  0
 24 51  1  0  0  0  0
 24 52  1  0  0  0  0
 24 53  1  0  0  0  0
 25 54  1  0  0  0  0
 25 55  1  0  0  0  0
 28 56  1  0  0  0  0
 29 57  1  0  0  0  0
 30 58  1  0  0  0  0
 31 59  1  0  0  0  0
M  END
> <FRED Chemgauss4 score>
-4.046671

$$$$
99
  -OEChem-08042116223D

 52 54  0     1  0  0  0  0  0999 V2000
  -23.4224   16.4074  -20.9114 C   0  0  0  0  0  0  0  0  0  0  0  0
  -23.8195   17.1992  -21.9889 C   0  0  0  0  0  0  0  0  0  0  0  0
  -22.3356   15.5431  -21.0442 C   0  0  0  0  0  0  0  0  0  0  0  0
  -23.1298   17.1267  -23.1991 C   0  0  0  0  0  0  0  0  0  0  0  0
  -21.6460   15.4706  -22.2545 C   0  0  0  0  0  0  0  0  0  0  0  0
  -22.0431   16.2624  -23.3320 C   0  0  0  0  0  0  0  0  0  0  0  0
  -22.8925   16.3278  -31.3006 C   0  0  0  0  0  0  0  0  0  0  0  0
  -22.9971   15.0002  -31.3442 C   0  0  0  0  0  0  0  0  0  0  0  0
  -17.1672   21.2446  -26.2739 C   0  0  0  0  0  0  0  0  0  0  0  0
  -16.0679   23.1043  -25.6271 C   0  0  0  0  0  0  0  0  0  0  0  0
  -18.2583   21.5034  -25.5370 C   0  0  0  0  0  0  0  0  0  0  0  0
  -22.0015   16.9886  -30.3285 C   0  0  0  0  0  0  0  0  0  0  0  0
  -22.2274   14.1344  -30.4251 C   0  0  0  0  0  0  0  0  0  0  0  0
  -18.2747   22.7427  -24.7166 C   0  0  0  0  0  0  0  0  0  0  0  0
  -19.3920   20.6220  -25.5268 C   0  0  0  0  0  0  0  0  0  0  0  0
  -19.3182   19.3431  -25.1365 C   0  0  0  0  0  0  0  0  0  0  0  0
  -20.5361   18.4863  -25.1529 C   0  0  0  0  0  0  0  0  0  0  0  0
  -21.2370   14.0688  -27.2290 C   0  0  0  0  0  0  0  0  0  0  0  0
  -20.6224   13.9910  -28.6032 C   0  0  0  0  0  0  0  0  0  0  0  0
  -20.6759   14.7998  -24.9129 C   0  0  0  0  0  0  0  0  0  0  0  0
  -21.2918   16.1829  -24.6496 C   0  0  2  0  0  0  0  0  0  0  0  0
  -16.0420   22.0299  -26.3447 N   0  0  0  0  0  0  0  0  0  0  0  0
  -17.1181   23.4918  -24.8270 N   0  0  0  0  0  0  0  0  0  0  0  0
  -21.3006   16.1626  -29.4878 N   0  0  0  0  0  0  0  0  0  0  0  0
  -21.4171   14.7929  -29.5450 N   0  0  0  0  0  0  0  0  0  0  0  0
  -20.2681   17.1996  -24.7177 N   0  0  0  0  0  0  0  0  0  0  0  0
  -20.3511   14.6072  -26.3021 N   0  0  0  0  0  0  0  0  0  0  0  0
  -21.9200   18.2148  -30.3050 O   0  0  0  0  0  0  0  0  0  0  0  0
  -22.3590   12.9142  -30.5068 O   0  0  0  0  0  0  0  0  0  0  0  0
  -19.2295   23.0583  -24.0134 O   0  0  0  0  0  0  0  0  0  0  0  0
  -21.6316   18.9004  -25.5182 O   0  0  0  0  0  0  0  0  0  0  0  0
  -22.3813   13.6997  -26.9787 O   0  0  0  0  0  0  0  0  0  0  0  0
  -23.9587   16.4649  -19.9687 H   0  0  0  0  0  0  0  0  0  0  0  0
  -24.6650   17.8730  -21.8853 H   0  0  0  0  0  0  0  0  0  0  0  0
  -22.0255   14.9273  -20.2052 H   0  0  0  0  0  0  0  0  0  0  0  0
  -23.4464   17.7473  -24.0333 H   0  0  0  0  0  0  0  0  0  0  0  0
  -20.8005   14.7943  -22.3488 H   0  0  0  0  0  0  0  0  0  0  0  0
  -23.4599   16.9560  -31.9779 H   0  0  0  0  0  0  0  0  0  0  0  0
  -23.6533   14.5175  -32.0600 H   0  0  0  0  0  0  0  0  0  0  0  0
  -17.1187   20.3485  -26.8863 H   0  0  0  0  0  0  0  0  0  0  0  0
  -15.2212   23.8073  -25.6072 H   0  0  0  0  0  0  0  0  0  0  0  0
  -20.3285   21.0595  -25.8594 H   0  0  0  0  0  0  0  0  0  0  0  0
  -18.3813   18.9065  -24.8047 H   0  0  0  0  0  0  0  0  0  0  0  0
  -19.6003   14.3800  -28.5723 H   0  0  0  0  0  0  0  0  0  0  0  0
  -20.6042   12.9514  -28.9431 H   0  0  0  0  0  0  0  0  0  0  0  0
  -19.7383   14.6838  -24.3574 H   0  0  0  0  0  0  0  0  0  0  0  0
  -21.3404   13.9815  -24.6158 H   0  0  0  0  0  0  0  0  0  0  0  0
  -21.9992   16.3929  -25.4625 H   0  0  0  0  0  0  0  0  0  0  0  0
  -17.0452   24.3560  -24.2983 H   0  0  0  0  0  0  0  0  0  0  0  0
  -20.6686   16.5482  -28.7930 H   0  0  0  0  0  0  0  0  0  0  0  0
  -19.3216   16.9338  -24.4619 H   0  0  0  0  0  0  0  0  0  0  0  0
  -19.4238   14.8797  -26.6230 H   0  0  0  0  0  0  0  0  0  0  0  0
  1  2  1  0  0  0  0
  1  3  2  0  0  0  0
  2  4  2  0  0  0  0
  3  5  1  0  0  0  0
  4  6  1  0  0  0  0
  5  6  2  0  0  0  0
  6 21  1  0  0  0  0
  7  8  2  0  0  0  0
  7 12  1  0  0  0  0
  8 13  1  0  0  0  0
  9 11  2  0  0  0  0
  9 22  1  0  0  0  0
 10 22  2  0  0  0  0
 10 23  1  0  0  0  0
 11 14  1  0  0  0  0
 11 15  1  0  0  0  0
 12 24  1  0  0  0  0
 12 28  2  0  0  0  0
 13 25  1  0  0  0  0
 13 29  2  0  0  0  0
 14 23  1  0  0  0  0
 14 30  2  0  0  0  0
 15 16  2  0  0  0  0
 16 17  1  0  0  0  0
 17 26  1  0  0  0  0
 17 31  2  0  0  0  0
 18 19  1  0  0  0  0
 18 27  1  0  0  0  0
 18 32  2  0  0  0  0
 19 25  1  0  0  0  0
 20 21  1  0  0  0  0
 20 27  1  0  0  0  0
 21 26  1  0  0  0  0
 24 25  1  0  0  0  0
  1 33  1  0  0  0  0
  2 34  1  0  0  0  0
  3 35  1  0  0  0  0
  4 36  1  0  0  0  0
  5 37  1  0  0  0  0
  7 38  1  0  0  0  0
  8 39  1  0  0  0  0
  9 40  1  0  0  0  0
 10 41  1  0  0  0  0
 15 42  1  0  0  0  0
 16 43  1  0  0  0  0
 19 44  1  0  0  0  0
 19 45  1  0  0  0  0
 20 46  1  0  0  0  0
 20 47  1  0  0  0  0
 21 48  1  0  0  0  0
 23 49  1  0  0  0  0
 24 50  1  0  0  0  0
 26 51  1  0  0  0  0
 27 52  1  0  0  0  0
M  END
> <FRED Chemgauss4 score>
-9.644697

$$$$
5
  -OEChem-08042116223D

 53 55  0     1  0  0  0  0  0999 V2000
  -25.7472   18.4922  -33.7040 C   0  0  0  0  0  0  0  0  0  0  0  0
  -25.8470   19.3958  -32.6503 C   0  0  0  0  0  0  0  0  0  0  0  0
  -24.9446   17.3580  -33.5780 C   0  0  0  0  0  0  0  0  0  0  0  0
  -25.1444   19.1688  -31.4665 C   0  0  0  0  0  0  0  0  0  0  0  0
  -23.4178   15.9772  -32.2495 C   0  0  0  0  0  0  0  0  0  0  0  0
  -22.7152   15.7502  -31.0658 C   0  0  0  0  0  0  0  0  0  0  0  0
  -23.6175   17.7880  -30.1380 C   0  0  0  0  0  0  0  0  0  0  0  0
  -24.2303   17.1136  -32.3938 C   0  0  0  0  0  0  0  0  0  0  0  0
  -24.3317   18.0325  -31.3222 C   0  0  0  0  0  0  0  0  0  0  0  0
  -22.8148   16.6539  -30.0121 C   0  0  0  0  0  0  0  0  0  0  0  0
  -16.6943   20.0818  -27.2085 C   0  0  0  0  0  0  0  0  0  0  0  0
  -16.4267   21.9986  -26.0511 C   0  0  0  0  0  0  0  0  0  0  0  0
  -17.9804   19.9246  -26.8596 C   0  0  0  0  0  0  0  0  0  0  0  0
  -18.5987   20.9468  -25.9753 C   0  0  0  0  0  0  0  0  0  0  0  0
  -18.7585   18.8078  -27.3174 C   0  0  0  0  0  0  0  0  0  0  0  0
  -18.9833   18.5578  -28.6136 C   0  0  0  0  0  0  0  0  0  0  0  0
  -20.1766   15.9056  -23.4671 C   0  0  0  0  0  0  0  0  0  0  0  0
  -20.9178   15.3952  -24.4584 C   0  0  0  0  0  0  0  0  0  0  0  0
  -19.8014   17.3803  -29.0157 C   0  0  0  0  0  0  0  0  0  0  0  0
  -19.5605   14.9958  -22.4655 C   0  0  0  0  0  0  0  0  0  0  0  0
  -21.5344   16.3053  -25.4640 C   0  0  0  0  0  0  0  0  0  0  0  0
  -22.9616   16.2601  -27.4959 C   0  0  0  0  0  0  0  0  0  0  0  0
  -22.0631   16.4093  -28.7472 C   0  0  2  0  0  0  0  0  0  0  0  0
  -15.8781   21.1164  -26.8198 N   0  0  0  0  0  0  0  0  0  0  0  0
  -17.7317   21.9621  -25.6166 N   0  0  0  0  0  0  0  0  0  0  0  0
  -18.8330   15.6763  -21.5164 N   0  0  0  0  0  0  0  0  0  0  0  0
  -22.2658   15.6098  -26.4162 N   0  0  0  0  0  0  0  0  0  0  0  0
  -21.0614   17.4654  -28.4924 N   0  0  0  0  0  0  0  0  0  0  0  0
  -19.7673   20.8833  -25.6065 O   0  0  0  0  0  0  0  0  0  0  0  0
  -19.3604   16.4776  -29.7198 O   0  0  0  0  0  0  0  0  0  0  0  0
  -19.6913   13.7769  -22.4907 O   0  0  0  0  0  0  0  0  0  0  0  0
  -21.3945   17.5235  -25.4257 O   0  0  0  0  0  0  0  0  0  0  0  0
  -26.2942   18.6699  -34.6251 H   0  0  0  0  0  0  0  0  0  0  0  0
  -26.4716   20.2787  -32.7493 H   0  0  0  0  0  0  0  0  0  0  0  0
  -24.8821   16.6652  -34.4148 H   0  0  0  0  0  0  0  0  0  0  0  0
  -25.2370   19.8888  -30.6559 H   0  0  0  0  0  0  0  0  0  0  0  0
  -23.3248   15.2575  -33.0605 H   0  0  0  0  0  0  0  0  0  0  0  0
  -22.0919   14.8644  -30.9760 H   0  0  0  0  0  0  0  0  0  0  0  0
  -23.6870   18.4869  -29.3059 H   0  0  0  0  0  0  0  0  0  0  0  0
  -16.2082   19.3552  -27.8536 H   0  0  0  0  0  0  0  0  0  0  0  0
  -15.8667   22.8701  -25.6791 H   0  0  0  0  0  0  0  0  0  0  0  0
  -19.1609   18.1667  -26.5388 H   0  0  0  0  0  0  0  0  0  0  0  0
  -18.5810   19.1998  -29.3912 H   0  0  0  0  0  0  0  0  0  0  0  0
  -20.0052   16.9719  -23.3646 H   0  0  0  0  0  0  0  0  0  0  0  0
  -21.0875   14.3284  -24.5586 H   0  0  0  0  0  0  0  0  0  0  0  0
  -23.2826   17.2357  -27.1134 H   0  0  0  0  0  0  0  0  0  0  0  0
  -23.8624   15.6734  -27.7048 H   0  0  0  0  0  0  0  0  0  0  0  0
  -21.4867   15.4684  -28.8335 H   0  0  0  0  0  0  0  0  0  0  0  0
  -18.0732   22.7036  -25.0122 H   0  0  0  0  0  0  0  0  0  0  0  0
  -18.7823   16.6878  -21.5785 H   0  0  0  0  0  0  0  0  0  0  0  0
  -18.3445   15.2125  -20.7567 H   0  0  0  0  0  0  0  0  0  0  0  0
  -22.3125   14.5947  -26.3484 H   0  0  0  0  0  0  0  0  0  0  0  0
  -21.3558   18.2143  -27.8972 H   0  0  0  0  0  0  0  0  0  0  0  0
  1  2  1  0  0  0  0
  1  3  2  0  0  0  0
  2  4  2  0  0  0  0
  3  8  1  0  0  0  0
  4  9  1  0  0  0  0
  5  6  2  0  0  0  0
  5  8  1  0  0  0  0
  6 10  1  0  0  0  0
  7  9  1  0  0  0  0
  7 10  2  0  0  0  0
  8  9  2  0  0  0  0
 10 23  1  0  0  0  0
 11 13  2  0  0  0  0
 11 24  1  0  0  0  0
 12 24  2  0  0  0  0
 12 25  1  0  0  0  0
 13 14  1  0  0  0  0
 13 15  1  0  0  0  0
 14 25  1  0  0  0  0
 14 29  2  0  0  0  0
 15 16  2  0  0  0  0
 16 19  1  0  0  0  0
 17 18  2  0  0  0  0
 17 20  1  0  0  0  0
 18 21  1  0  0  0  0
 19 28  1  0  0  0  0
 19 30  2  0  0  0  0
 20 26  1  0  0  0  0
 20 31  2  0  0  0  0
 21 27  1  0  0  0  0
 21 32  2  0  0  0  0
 22 23  1  0  0  0  0
 22 27  1  0  0  0  0
 23 28  1  0  0  0  0
  1 33  1  0  0  0  0
  2 34  1  0  0  0  0
  3 35  1  0  0  0  0
  4 36  1  0  0  0  0
  5 37  1  0  0  0  0
  6 38  1  0  0  0  0
  7 39  1  0  0  0  0
 11 40  1  0  0  0  0
 12 41  1  0  0  0  0
 15 42  1  0  0  0  0
 16 43  1  0  0  0  0
 17 44  1  0  0  0  0
 18 45  1  0  0  0  0
 22 46  1  0  0  0  0
 22 47  1  0  0  0  0
 23 48  1  0  0  0  0
 25 49  1  0  0  0  0
 26 50  1  0  0  0  0
 26 51  1  0  0  0  0
 27 52  1  0  0  0  0
 28 53  1  0  0  0  0
M  END
> <FRED Chemgauss4 score>
-5.780832

$$$$
25
  -OEChem-08042116223D

 53 55  0     1  0  0  0  0  0999 V2000
  -19.1724   14.2224  -20.4474 C   0  0  0  0  0  0  0  0  0  0  0  0
  -20.1164   15.2451  -20.3547 C   0  0  0  0  0  0  0  0  0  0  0  0
  -18.6547   13.8617  -21.6914 C   0  0  0  0  0  0  0  0  0  0  0  0
  -20.5428   15.9070  -21.5061 C   0  0  0  0  0  0  0  0  0  0  0  0
  -19.0812   14.5236  -22.8428 C   0  0  0  0  0  0  0  0  0  0  0  0
  -20.0252   15.5463  -22.7502 C   0  0  0  0  0  0  0  0  0  0  0  0
  -18.5578   22.8893  -24.7398 C   0  0  0  0  0  0  0  0  0  0  0  0
  -22.9643   18.1822  -30.8392 C   0  0  0  0  0  0  0  0  0  0  0  0
  -16.9807   24.0555  -25.8523 C   0  0  0  0  0  0  0  0  0  0  0  0
  -18.6727   21.9398  -25.6809 C   0  0  0  0  0  0  0  0  0  0  0  0
  -22.7517   16.8595  -30.8118 C   0  0  0  0  0  0  0  0  0  0  0  0
  -17.8230   22.0476  -26.8956 C   0  0  0  0  0  0  0  0  0  0  0  0
  -23.5051   16.0081  -31.7837 C   0  0  0  0  0  0  0  0  0  0  0  0
  -24.5750   18.0795  -32.6461 C   0  0  0  0  0  0  0  0  0  0  0  0
  -19.5842   20.8391  -25.5392 C   0  0  0  0  0  0  0  0  0  0  0  0
  -21.8333   16.2566  -29.8869 C   0  0  0  0  0  0  0  0  0  0  0  0
  -19.2443   19.6804  -24.9602 C   0  0  0  0  0  0  0  0  0  0  0  0
  -21.9668   16.3544  -28.5580 C   0  0  0  0  0  0  0  0  0  0  0  0
  -20.2422   18.5809  -24.8486 C   0  0  0  0  0  0  0  0  0  0  0  0
  -20.9747   15.7036  -27.6583 C   0  0  0  0  0  0  0  0  0  0  0  0
  -20.4533   15.3806  -25.2595 C   0  0  0  0  0  0  0  0  0  0  0  0
  -20.4892   16.2664  -24.0043 C   0  0  2  0  0  0  0  0  0  0  0  0
  -17.7141   23.9725  -24.7916 N   0  0  0  0  0  0  0  0  0  0  0  0
  -23.8332   18.7807  -31.7101 N   0  0  0  0  0  0  0  0  0  0  0  0
  -16.9959   23.1553  -26.8928 N   0  0  0  0  0  0  0  0  0  0  0  0
  -24.3635   16.7000  -32.6299 N   0  0  0  0  0  0  0  0  0  0  0  0
  -21.2717   15.9097  -26.3193 N   0  0  0  0  0  0  0  0  0  0  0  0
  -19.7128   17.4645  -24.2239 N   0  0  0  0  0  0  0  0  0  0  0  0
  -17.8621   21.2255  -27.8058 O   0  0  0  0  0  0  0  0  0  0  0  0
  -23.3673   14.7876  -31.8202 O   0  0  0  0  0  0  0  0  0  0  0  0
  -25.3560   18.6242  -33.4267 O   0  0  0  0  0  0  0  0  0  0  0  0
  -21.3887   18.6820  -25.2736 O   0  0  0  0  0  0  0  0  0  0  0  0
  -20.0140   15.0687  -28.0817 O   0  0  0  0  0  0  0  0  0  0  0  0
  -18.8395   13.7080  -19.5506 H   0  0  0  0  0  0  0  0  0  0  0  0
  -20.5187   15.5269  -19.3860 H   0  0  0  0  0  0  0  0  0  0  0  0
  -17.9190   13.0662  -21.7638 H   0  0  0  0  0  0  0  0  0  0  0  0
  -21.2788   16.7025  -21.4244 H   0  0  0  0  0  0  0  0  0  0  0  0
  -18.6725   14.2356  -23.8078 H   0  0  0  0  0  0  0  0  0  0  0  0
  -19.1624   22.8440  -23.8381 H   0  0  0  0  0  0  0  0  0  0  0  0
  -22.4582   18.8678  -30.1683 H   0  0  0  0  0  0  0  0  0  0  0  0
  -16.2685   24.8816  -26.0000 H   0  0  0  0  0  0  0  0  0  0  0  0
  -20.5820   21.0032  -25.9351 H   0  0  0  0  0  0  0  0  0  0  0  0
  -21.0104   15.7075  -30.3346 H   0  0  0  0  0  0  0  0  0  0  0  0
  -18.2463   19.5173  -24.5652 H   0  0  0  0  0  0  0  0  0  0  0  0
  -22.7897   16.9041  -28.1115 H   0  0  0  0  0  0  0  0  0  0  0  0
  -19.4342   15.3183  -25.6578 H   0  0  0  0  0  0  0  0  0  0  0  0
  -20.7948   14.3590  -25.0617 H   0  0  0  0  0  0  0  0  0  0  0  0
  -21.5281   16.5875  -23.8525 H   0  0  0  0  0  0  0  0  0  0  0  0
  -23.9396   19.7900  -31.6680 H   0  0  0  0  0  0  0  0  0  0  0  0
  -16.3809   23.3060  -27.6870 H   0  0  0  0  0  0  0  0  0  0  0  0
  -24.8883   16.1477  -33.3023 H   0  0  0  0  0  0  0  0  0  0  0  0
  -22.0763   16.4777  -26.0615 H   0  0  0  0  0  0  0  0  0  0  0  0
  -18.7405   17.4569  -23.9297 H   0  0  0  0  0  0  0  0  0  0  0  0
  1  2  1  0  0  0  0
  1  3  2  0  0  0  0
  2  4  2  0  0  0  0
  3  5  1  0  0  0  0
  4  6  1  0  0  0  0
  5  6  2  0  0  0  0
  6 22  1  0  0  0  0
  7 10  2  0  0  0  0
  7 23  1  0  0  0  0
  8 11  2  0  0  0  0
  8 24  1  0  0  0  0
  9 23  2  0  0  0  0
  9 25  1  0  0  0  0
 10 12  1  0  0  0  0
 10 15  1  0  0  0  0
 11 13  1  0  0  0  0
 11 16  1  0  0  0  0
 12 25  1  0  0  0  0
 12 29  2  0  0  0  0
 13 26  1  0  0  0  0
 13 30  2  0  0  0  0
 14 24  1  0  0  0  0
 14 26  1  0  0  0  0
 14 31  2  0  0  0  0
 15 17  2  0  0  0  0
 16 18  2  0  0  0  0
 17 19  1  0  0  0  0
 18 20  1  0  0  0  0
 19 28  1  0  0  0  0
 19 32  2  0  0  0  0
 20 27  1  0  0  0  0
 20 33  2  0  0  0  0
 21 22  1  0  0  0  0
 21 27  1  0  0  0  0
 22 28  1  0  0  0  0
  1 34  1  0  0  0  0
  2 35  1  0  0  0  0
  3 36  1  0  0  0  0
  4 37  1  0  0  0  0
  5 38  1  0  0  0  0
  7 39  1  0  0  0  0
  8 40  1  0  0  0  0
  9 41  1  0  0  0  0
 15 42  1  0  0  0  0
 16 43  1  0  0  0  0
 17 44  1  0  0  0  0
 18 45  1  0  0  0  0
 21 46  1  0  0  0  0
 21 47  1  0  0  0  0
 22 48  1  0  0  0  0
 24 49  1  0  0  0  0
 25 50  1  0  0  0  0
 26 51  1  0  0  0  0
 27 52  1  0  0  0  0
 28 53  1  0  0  0  0
M  END
> <FRED Chemgauss4 score>
-5.899125

$$$$
66
  -OEChem-08042116223D

 59 62  0     1  0  0  0  0  0999 V2000
  -23.8201   12.7692  -31.5804 C   0  0  0  0  0  0  0  0  0  0  0  0
  -23.1605   12.0200  -30.5943 C   0  0  0  0  0  0  0  0  0  0  0  0
  -23.6506   14.1526  -31.6536 C   0  0  0  0  0  0  0  0  0  0  0  0
  -22.3219   12.6432  -29.6669 C   0  0  0  0  0  0  0  0  0  0  0  0
  -22.8070   14.7607  -30.7383 C   0  0  0  0  0  0  0  0  0  0  0  0
  -22.1454   14.0156  -29.7516 C   0  0  0  0  0  0  0  0  0  0  0  0
  -21.5262   15.6089  -21.4477 C   0  0  0  0  0  0  0  0  0  0  0  0
  -20.7621   14.5462  -21.6971 C   0  0  0  0  0  0  0  0  0  0  0  0
  -19.1657   21.0150  -25.5669 C   0  0  0  0  0  0  0  0  0  0  0  0
  -18.6030   20.9221  -26.7807 C   0  0  0  0  0  0  0  0  0  0  0  0
  -21.5546   16.7584  -22.3716 C   0  0  0  0  0  0  0  0  0  0  0  0
  -19.9135   14.4719  -22.9059 C   0  0  0  0  0  0  0  0  0  0  0  0
  -17.9330   22.1251  -27.3360 C   0  0  0  0  0  0  0  0  0  0  0  0
  -18.5968   23.1845  -25.2617 C   0  0  0  0  0  0  0  0  0  0  0  0
  -18.6354   19.7037  -27.5401 C   0  0  0  0  0  0  0  0  0  0  0  0
  -19.7746   19.1120  -27.9215 C   0  0  0  0  0  0  0  0  0  0  0  0
  -19.7322   17.8479  -28.7074 C   0  0  0  0  0  0  0  0  0  0  0  0
  -19.7837   14.6369  -25.9729 C   0  0  0  0  0  0  0  0  0  0  0  0
  -22.5036   16.2216  -30.6058 C   0  0  0  0  0  0  0  0  0  0  0  0
  -21.3378   14.9206  -28.8589 C   0  0  2  0  0  0  0  0  0  0  0  0
  -21.2175   16.1717  -29.7621 C   0  0  2  0  0  0  0  0  0  0  0  0
  -18.5559   24.4635  -24.4765 C   0  0  0  0  0  0  0  0  0  0  0  0
  -19.1563   15.5499  -24.9506 C   0  0  0  0  0  0  0  0  0  0  0  0
  -19.9815   14.3680  -28.4432 C   0  0  0  0  0  0  0  0  0  0  0  0
  -19.1822   22.1355  -24.7735 N   0  0  0  0  0  0  0  0  0  0  0  0
  -17.9806   23.2223  -26.4957 N   0  0  0  0  0  0  0  0  0  0  0  0
  -20.7579   16.6638  -23.4836 N   0  0  0  0  0  0  0  0  0  0  0  0
  -19.9749   15.5595  -23.7295 N   0  0  0  0  0  0  0  0  0  0  0  0
  -21.0025   17.3796  -29.0135 N   0  0  0  0  0  0  0  0  0  0  0  0
  -19.5137   15.0493  -27.2815 N   0  0  0  0  0  0  0  0  0  0  0  0
  -22.2663   17.7290  -22.1224 O   0  0  0  0  0  0  0  0  0  0  0  0
  -19.2271   13.4680  -23.0905 O   0  0  0  0  0  0  0  0  0  0  0  0
  -17.3920   22.1317  -28.4374 O   0  0  0  0  0  0  0  0  0  0  0  0
  -18.6808   17.3037  -29.0293 O   0  0  0  0  0  0  0  0  0  0  0  0
  -20.4497   13.6481  -25.6775 O   0  0  0  0  0  0  0  0  0  0  0  0
  -24.4733   12.2672  -32.2888 H   0  0  0  0  0  0  0  0  0  0  0  0
  -23.3103   10.9447  -30.5477 H   0  0  0  0  0  0  0  0  0  0  0  0
  -24.1702   14.7321  -32.4090 H   0  0  0  0  0  0  0  0  0  0  0  0
  -21.8304   12.0568  -28.8982 H   0  0  0  0  0  0  0  0  0  0  0  0
  -22.1458   15.6560  -20.5595 H   0  0  0  0  0  0  0  0  0  0  0  0
  -20.7433   13.7029  -21.0158 H   0  0  0  0  0  0  0  0  0  0  0  0
  -19.6653   20.1561  -25.1271 H   0  0  0  0  0  0  0  0  0  0  0  0
  -17.6667   19.2826  -27.7917 H   0  0  0  0  0  0  0  0  0  0  0  0
  -20.7427   19.5336  -27.6690 H   0  0  0  0  0  0  0  0  0  0  0  0
  -22.3284   16.6992  -31.5743 H   0  0  0  0  0  0  0  0  0  0  0  0
  -23.3249   16.7220  -30.0810 H   0  0  0  0  0  0  0  0  0  0  0  0
  -21.9395   15.1449  -27.9677 H   0  0  0  0  0  0  0  0  0  0  0  0
  -20.3544   16.0662  -30.4357 H   0  0  0  0  0  0  0  0  0  0  0  0
  -17.6627   24.4789  -23.8569 H   0  0  0  0  0  0  0  0  0  0  0  0
  -19.4396   24.5297  -23.8461 H   0  0  0  0  0  0  0  0  0  0  0  0
  -18.5408   25.3080  -25.1614 H   0  0  0  0  0  0  0  0  0  0  0  0
  -18.1506   15.1945  -24.7072 H   0  0  0  0  0  0  0  0  0  0  0  0
  -19.0945   16.5665  -25.3497 H   0  0  0  0  0  0  0  0  0  0  0  0
  -20.1107   13.3058  -28.2354 H   0  0  0  0  0  0  0  0  0  0  0  0
  -19.2961   14.5219  -29.2767 H   0  0  0  0  0  0  0  0  0  0  0  0
  -17.5409   24.0817  -26.8122 H   0  0  0  0  0  0  0  0  0  0  0  0
  -20.7270   17.4179  -24.1628 H   0  0  0  0  0  0  0  0  0  0  0  0
  -21.8204   17.8851  -28.6760 H   0  0  0  0  0  0  0  0  0  0  0  0
  -18.9453   15.8920  -27.4134 H   0  0  0  0  0  0  0  0  0  0  0  0
  1  2  1  0  0  0  0
  1  3  2  0  0  0  0
  2  4  2  0  0  0  0
  3  5  1  0  0  0  0
  4  6  1  0  0  0  0
  5  6  2  0  0  0  0
  5 19  1  0  0  0  0
  6 20  1  0  0  0  0
  7  8  2  0  0  0  0
  7 11  1  0  0  0  0
  8 12  1  0  0  0  0
  9 10  2  0  0  0  0
  9 25  1  0  0  0  0
 10 13  1  0  0  0  0
 10 15  1  0  0  0  0
 11 27  1  0  0  0  0
 11 31  2  0  0  0  0
 12 28  1  0  0  0  0
 12 32  2  0  0  0  0
 13 26  1  0  0  0  0
 13 33  2  0  0  0  0
 14 22  1  0  0  0  0
 14 25  2  0  0  0  0
 14 26  1  0  0  0  0
 15 16  2  0  0  0  0
 16 17  1  0  0  0  0
 17 29  1  0  0  0  0
 17 34  2  0  0  0  0
 18 23  1  0  0  0  0
 18 30  1  0  0  0  0
 18 35  2  0  0  0  0
 19 21  1  0  0  0  0
 20 21  1  0  0  0  0
 20 24  1  0  0  0  0
 21 29  1  0  0  0  0
 23 28  1  0  0  0  0
 24 30  1  0  0  0  0
 27 28  1  0  0  0  0
  1 36  1  0  0  0  0
  2 37  1  0  0  0  0
  3 38  1  0  0  0  0
  4 39  1  0  0  0  0
  7 40  1  0  0  0  0
  8 41  1  0  0  0  0
  9 42  1  0  0  0  0
 15 43  1  0  0  0  0
 16 44  1  0  0  0  0
 19 45  1  0  0  0  0
 19 46  1  0  0  0  0
 20 47  1  0  0  0  0
 21 48  1  0  0  0  0
 22 49  1  0  0  0  0
 22 50  1  0  0  0  0
 22 51  1  0  0  0  0
 23 52  1  0  0  0  0
 23 53  1  0  0  0  0
 24 54  1  0  0  0  0
 24 55  1  0  0  0  0
 26 56  1  0  0  0  0
 27 57  1  0  0  0  0
 29 58  1  0  0  0  0
 30 59  1  0  0  0  0
M  END
> <FRED Chemgauss4 score>
-7.532924

$$$$
87
  -OEChem-08042116223D

 57 60  0     1  0  0  0  0  0999 V2000
  -21.7745   13.2664  -19.8513 C   0  0  0  0  0  0  0  0  0  0  0  0
  -22.9034   13.9985  -20.2068 C   0  0  0  0  0  0  0  0  0  0  0  0
  -20.6754   13.2167  -20.7092 C   0  0  0  0  0  0  0  0  0  0  0  0
  -22.9377   14.6837  -21.4216 C   0  0  0  0  0  0  0  0  0  0  0  0
  -19.5953   13.8614  -22.8117 C   0  0  0  0  0  0  0  0  0  0  0  0
  -19.6295   14.5465  -24.0265 C   0  0  0  0  0  0  0  0  0  0  0  0
  -21.8576   15.3283  -23.5242 C   0  0  0  0  0  0  0  0  0  0  0  0
  -20.6925   13.9003  -21.9359 C   0  0  0  0  0  0  0  0  0  0  0  0
  -21.8406   14.6447  -22.2974 C   0  0  0  0  0  0  0  0  0  0  0  0
  -20.7585   15.2786  -24.3821 C   0  0  0  0  0  0  0  0  0  0  0  0
  -16.7566   21.0544  -26.3666 C   0  0  0  0  0  0  0  0  0  0  0  0
  -15.7807   23.0786  -26.1779 C   0  0  0  0  0  0  0  0  0  0  0  0
  -17.9089   21.4374  -25.7956 C   0  0  0  0  0  0  0  0  0  0  0  0
  -18.0340   22.8473  -25.3420 C   0  0  0  0  0  0  0  0  0  0  0  0
  -24.6962   18.1982  -31.5262 C   0  0  0  0  0  0  0  0  0  0  0  0
  -23.2957   16.4226  -31.7754 C   0  0  0  0  0  0  0  0  0  0  0  0
  -19.0057   20.5274  -25.6185 C   0  0  0  0  0  0  0  0  0  0  0  0
  -18.8394   19.2111  -25.4376 C   0  0  0  0  0  0  0  0  0  0  0  0
  -20.0242   18.3264  -25.2613 C   0  0  0  0  0  0  0  0  0  0  0  0
  -21.8177   16.1564  -28.8530 C   0  0  0  0  0  0  0  0  0  0  0  0
  -23.5701   18.4234  -30.5411 C   0  0  0  0  0  0  0  0  0  0  0  0
  -21.5242   16.9702  -30.0874 C   0  0  0  0  0  0  0  0  0  0  0  0
  -20.6429   15.1010  -26.9242 C   0  0  0  0  0  0  0  0  0  0  0  0
  -20.7932   16.0107  -25.6812 C   0  0  2  0  0  0  0  0  0  0  0  0
  -15.6601   21.8552  -26.5766 N   0  0  0  0  0  0  0  0  0  0  0  0
  -16.9018   23.6046  -25.5783 N   0  0  0  0  0  0  0  0  0  0  0  0
  -24.4635   17.0234  -32.1978 N   0  0  0  0  0  0  0  0  0  0  0  0
  -22.7784   17.2567  -30.7990 N   0  0  0  0  0  0  0  0  0  0  0  0
  -19.7665   17.0719  -25.7394 N   0  0  0  0  0  0  0  0  0  0  0  0
  -20.6570   15.8631  -28.1456 N   0  0  0  0  0  0  0  0  0  0  0  0
  -19.0501   23.2838  -24.8102 O   0  0  0  0  0  0  0  0  0  0  0  0
  -25.6445   18.9552  -31.6772 O   0  0  0  0  0  0  0  0  0  0  0  0
  -22.8341   15.3693  -32.1937 O   0  0  0  0  0  0  0  0  0  0  0  0
  -21.0711   18.7157  -24.7535 O   0  0  0  0  0  0  0  0  0  0  0  0
  -22.9492   15.8070  -28.5271 O   0  0  0  0  0  0  0  0  0  0  0  0
  -21.7489   12.7331  -18.9056 H   0  0  0  0  0  0  0  0  0  0  0  0
  -23.7588   14.0362  -19.5386 H   0  0  0  0  0  0  0  0  0  0  0  0
  -19.8035   12.6384  -20.4103 H   0  0  0  0  0  0  0  0  0  0  0  0
  -23.8309   15.2494  -21.6791 H   0  0  0  0  0  0  0  0  0  0  0  0
  -18.7023   13.2952  -22.5543 H   0  0  0  0  0  0  0  0  0  0  0  0
  -18.7693   14.5024  -24.6892 H   0  0  0  0  0  0  0  0  0  0  0  0
  -22.7345   15.9049  -23.8142 H   0  0  0  0  0  0  0  0  0  0  0  0
  -16.6282   20.0319  -26.7108 H   0  0  0  0  0  0  0  0  0  0  0  0
  -14.9653   23.8085  -26.2958 H   0  0  0  0  0  0  0  0  0  0  0  0
  -19.9945   20.9758  -25.6401 H   0  0  0  0  0  0  0  0  0  0  0  0
  -17.8504   18.7638  -25.4167 H   0  0  0  0  0  0  0  0  0  0  0  0
  -23.0093   19.3281  -30.7845 H   0  0  0  0  0  0  0  0  0  0  0  0
  -23.9387   18.4163  -29.5134 H   0  0  0  0  0  0  0  0  0  0  0  0
  -21.0483   17.9131  -29.8024 H   0  0  0  0  0  0  0  0  0  0  0  0
  -20.8552   16.4123  -30.7491 H   0  0  0  0  0  0  0  0  0  0  0  0
  -19.6919   14.5564  -26.9108 H   0  0  0  0  0  0  0  0  0  0  0  0
  -21.4475   14.3610  -26.9912 H   0  0  0  0  0  0  0  0  0  0  0  0
  -21.7641   16.5310  -25.7887 H   0  0  0  0  0  0  0  0  0  0  0  0
  -16.9017   24.5810  -25.2984 H   0  0  0  0  0  0  0  0  0  0  0  0
  -25.0730   16.6452  -32.9139 H   0  0  0  0  0  0  0  0  0  0  0  0
  -18.9001   16.8202  -26.1725 H   0  0  0  0  0  0  0  0  0  0  0  0
  -19.7700   16.2056  -28.5107 H   0  0  0  0  0  0  0  0  0  0  0  0
  1  2  1  0  0  0  0
  1  3  2  0  0  0  0
  2  4  2  0  0  0  0
  3  8  1  0  0  0  0
  4  9  1  0  0  0  0
  5  6  2  0  0  0  0
  5  8  1  0  0  0  0
  6 10  1  0  0  0  0
  7  9  1  0  0  0  0
  7 10  2  0  0  0  0
  8  9  2  0  0  0  0
 10 24  1  0  0  0  0
 11 13  2  0  0  0  0
 11 25  1  0  0  0  0
 12 25  2  0  0  0  0
 12 26  1  0  0  0  0
 13 14  1  0  0  0  0
 13 17  1  0  0  0  0
 14 26  1  0  0  0  0
 14 31  2  0  0  0  0
 15 21  1  0  0  0  0
 15 27  1  0  0  0  0
 15 32  2  0  0  0  0
 16 27  1  0  0  0  0
 16 28  1  0  0  0  0
 16 33  2  0  0  0  0
 17 18  2  0  0  0  0
 18 19  1  0  0  0  0
 19 29  1  0  0  0  0
 19 34  2  0  0  0  0
 20 22  1  0  0  0  0
 20 30  1  0  0  0  0
 20 35  2  0  0  0  0
 21 28  1  0  0  0  0
 22 28  1  0  0  0  0
 23 24  1  0  0  0  0
 23 30  1  0  0  0  0
 24 29  1  0  0  0  0
  1 36  1  0  0  0  0
  2 37  1  0  0  0  0
  3 38  1  0  0  0  0
  4 39  1  0  0  0  0
  5 40  1  0  0  0  0
  6 41  1  0  0  0  0
  7 42  1  0  0  0  0
 11 43  1  0  0  0  0
 12 44  1  0  0  0  0
 17 45  1  0  0  0  0
 18 46  1  0  0  0  0
 21 47  1  0  0  0  0
 21 48  1  0  0  0  0
 22 49  1  0  0  0  0
 22 50  1  0  0  0  0
 23 51  1  0  0  0  0
 23 52  1  0  0  0  0
 24 53  1  0  0  0  0
 26 54  1  0  0  0  0
 27 55  1  0  0  0  0
 29 56  1  0  0  0  0
 30 57  1  0  0  0  0
M  END
> <FRED Chemgauss4 score>
-4.502770

$$$$
98
  -OEChem-08042116223D

 53 55  0     1  0  0  0  0  0999 V2000
  -21.5383   13.9991  -20.5045 C   0  0  0  0  0  0  0  0  0  0  0  0
  -22.3108   15.1337  -20.7524 C   0  0  0  0  0  0  0  0  0  0  0  0
  -20.8013   13.4180  -21.5365 C   0  0  0  0  0  0  0  0  0  0  0  0
  -22.3465   15.6872  -22.0323 C   0  0  0  0  0  0  0  0  0  0  0  0
  -20.8370   13.9715  -22.8164 C   0  0  0  0  0  0  0  0  0  0  0  0
  -20.2966   16.5603  -29.1949 C   0  0  0  0  0  0  0  0  0  0  0  0
  -22.2932   17.5014  -30.0807 C   0  0  0  0  0  0  0  0  0  0  0  0
  -20.3815   18.7754  -30.0566 C   0  0  0  0  0  0  0  0  0  0  0  0
  -21.6096   15.1061  -23.0643 C   0  0  0  0  0  0  0  0  0  0  0  0
  -21.6460   16.4224  -29.5005 C   0  0  0  0  0  0  0  0  0  0  0  0
  -19.6448   17.7561  -29.4750 C   0  0  0  0  0  0  0  0  0  0  0  0
  -17.4010   20.5027  -26.5185 C   0  0  0  0  0  0  0  0  0  0  0  0
  -16.5492   22.5684  -26.2147 C   0  0  0  0  0  0  0  0  0  0  0  0
  -18.6467   20.8464  -26.1571 C   0  0  0  0  0  0  0  0  0  0  0  0
  -18.9003   22.2568  -25.7627 C   0  0  0  0  0  0  0  0  0  0  0  0
  -19.7220   19.8945  -26.1457 C   0  0  0  0  0  0  0  0  0  0  0  0
  -19.7089   18.7883  -25.3911 C   0  0  0  0  0  0  0  0  0  0  0  0
  -20.8598   17.8442  -25.4306 C   0  0  0  0  0  0  0  0  0  0  0  0
  -21.8293   14.3908  -28.0116 C   0  0  0  0  0  0  0  0  0  0  0  0
  -22.3809   15.1409  -29.2088 C   0  0  0  0  0  0  0  0  0  0  0  0
  -21.4506   14.6684  -25.5724 C   0  0  0  0  0  0  0  0  0  0  0  0
  -21.6482   15.7080  -24.4582 C   0  0  2  0  0  0  0  0  0  0  0  0
  -21.6936   18.6785  -30.3677 N   0  0  0  0  0  0  0  0  0  0  0  0
  -16.3164   21.3450  -26.5599 N   0  0  0  0  0  0  0  0  0  0  0  0
  -17.7745   23.0568  -25.8232 N   0  0  0  0  0  0  0  0  0  0  0  0
  -18.2824   17.9239  -29.1781 N   0  0  0  0  0  0  0  0  0  0  0  0
  -20.6694   16.7622  -24.5881 N   0  0  0  0  0  0  0  0  0  0  0  0
  -21.9042   15.1515  -26.8505 N   0  0  0  0  0  0  0  0  0  0  0  0
  -20.0074   22.6590  -25.4184 O   0  0  0  0  0  0  0  0  0  0  0  0
  -21.8438   18.0296  -26.1396 O   0  0  0  0  0  0  0  0  0  0  0  0
  -21.3788   13.2499  -28.0751 O   0  0  0  0  0  0  0  0  0  0  0  0
  -21.5095   13.5691  -19.5076 H   0  0  0  0  0  0  0  0  0  0  0  0
  -22.8838   15.5869  -19.9488 H   0  0  0  0  0  0  0  0  0  0  0  0
  -20.1988   12.5353  -21.3436 H   0  0  0  0  0  0  0  0  0  0  0  0
  -22.9514   16.5712  -22.2162 H   0  0  0  0  0  0  0  0  0  0  0  0
  -20.2597   13.5119  -23.6143 H   0  0  0  0  0  0  0  0  0  0  0  0
  -19.7546   15.7347  -28.7392 H   0  0  0  0  0  0  0  0  0  0  0  0
  -23.3458   17.4523  -30.3416 H   0  0  0  0  0  0  0  0  0  0  0  0
  -19.9276   19.7317  -30.2992 H   0  0  0  0  0  0  0  0  0  0  0  0
  -17.1775   19.4811  -26.8132 H   0  0  0  0  0  0  0  0  0  0  0  0
  -15.7542   23.3297  -26.2108 H   0  0  0  0  0  0  0  0  0  0  0  0
  -20.5606   20.1272  -26.7951 H   0  0  0  0  0  0  0  0  0  0  0  0
  -18.8697   18.5563  -24.7426 H   0  0  0  0  0  0  0  0  0  0  0  0
  -23.4421   15.3577  -29.0321 H   0  0  0  0  0  0  0  0  0  0  0  0
  -22.3386   14.4817  -30.0851 H   0  0  0  0  0  0  0  0  0  0  0  0
  -20.3877   14.4294  -25.6920 H   0  0  0  0  0  0  0  0  0  0  0  0
  -21.9801   13.7313  -25.3703 H   0  0  0  0  0  0  0  0  0  0  0  0
  -22.6324   16.1718  -24.6058 H   0  0  0  0  0  0  0  0  0  0  0  0
  -17.8589   24.0366  -25.5693 H   0  0  0  0  0  0  0  0  0  0  0  0
  -17.7836   17.1873  -28.7149 H   0  0  0  0  0  0  0  0  0  0  0  0
  -17.8462   18.8112  -29.3460 H   0  0  0  0  0  0  0  0  0  0  0  0
  -19.8073   16.6733  -24.0581 H   0  0  0  0  0  0  0  0  0  0  0  0
  -22.2962   16.0892  -26.9063 H   0  0  0  0  0  0  0  0  0  0  0  0
  1  2  1  0  0  0  0
  1  3  2  0  0  0  0
  2  4  2  0  0  0  0
  3  5  1  0  0  0  0
  4  9  1  0  0  0  0
  5  9  2  0  0  0  0
  6 10  1  0  0  0  0
  6 11  2  0  0  0  0
  7 10  2  0  0  0  0
  7 23  1  0  0  0  0
  8 11  1  0  0  0  0
  8 23  2  0  0  0  0
  9 22  1  0  0  0  0
 10 20  1  0  0  0  0
 11 26  1  0  0  0  0
 12 14  2  0  0  0  0
 12 24  1  0  0  0  0
 13 24  2  0  0  0  0
 13 25  1  0  0  0  0
 14 15  1  0  0  0  0
 14 16  1  0  0  0  0
 15 25  1  0  0  0  0
 15 29  2  0  0  0  0
 16 17  2  0  0  0  0
 17 18  1  0  0  0  0
 18 27  1  0  0  0  0
 18 30  2  0  0  0  0
 19 20  1  0  0  0  0
 19 28  1  0  0  0  0
 19 31  2  0  0  0  0
 21 22  1  0  0  0  0
 21 28  1  0  0  0  0
 22 27  1  0  0  0  0
  1 32  1  0  0  0  0
  2 33  1  0  0  0  0
  3 34  1  0  0  0  0
  4 35  1  0  0  0  0
  5 36  1  0  0  0  0
  6 37  1  0  0  0  0
  7 38  1  0  0  0  0
  8 39  1  0  0  0  0
 12 40  1  0  0  0  0
 13 41  1  0  0  0  0
 16 42  1  0  0  0  0
 17 43  1  0  0  0  0
 20 44  1  0  0  0  0
 20 45  1  0  0  0  0
 21 46  1  0  0  0  0
 21 47  1  0  0  0  0
 22 48  1  0  0  0  0
 25 49  1  0  0  0  0
 26 50  1  0  0  0  0
 26 51  1  0  0  0  0
 27 52  1  0  0  0  0
 28 53  1  0  0  0  0
M  END
> <FRED Chemgauss4 score>
-9.592957

$$$$
56
  -OEChem-08042116223D

 56 59  0     1  0  0  0  0  0999 V2000
  -21.6575   14.3021  -20.8669 C   0  0  0  0  0  0  0  0  0  0  0  0
  -21.3935   13.3485  -21.8628 C   0  0  0  0  0  0  0  0  0  0  0  0
  -21.6067   15.6673  -21.1565 C   0  0  0  0  0  0  0  0  0  0  0  0
  -21.0762   13.7461  -23.1634 C   0  0  0  0  0  0  0  0  0  0  0  0
  -21.2794   16.0534  -22.4454 C   0  0  0  0  0  0  0  0  0  0  0  0
  -21.0209   15.1024  -23.4417 C   0  0  0  0  0  0  0  0  0  0  0  0
  -22.9033   13.7966  -29.5701 C   0  0  0  0  0  0  0  0  0  0  0  0
  -20.3421   21.3390  -29.5363 C   0  0  0  0  0  0  0  0  0  0  0  0
  -21.1455   20.4671  -28.9096 C   0  0  0  0  0  0  0  0  0  0  0  0
  -22.9833   14.8932  -28.8044 C   0  0  0  0  0  0  0  0  0  0  0  0
  -22.5534   13.9239  -31.0046 C   0  0  0  0  0  0  0  0  0  0  0  0
  -22.5793   20.4346  -29.2938 C   0  0  0  0  0  0  0  0  0  0  0  0
  -21.9774   22.1902  -30.8498 C   0  0  0  0  0  0  0  0  0  0  0  0
  -22.4122   16.3732  -30.6526 C   0  0  0  0  0  0  0  0  0  0  0  0
  -20.6547   19.5802  -27.8923 C   0  0  0  0  0  0  0  0  0  0  0  0
  -20.0871   20.0129  -26.7592 C   0  0  0  0  0  0  0  0  0  0  0  0
  -19.5996   19.0347  -25.7478 C   0  0  0  0  0  0  0  0  0  0  0  0
  -22.0588   14.6616  -26.5482 C   0  0  0  0  0  0  0  0  0  0  0  0
  -21.1976   17.4443  -22.9951 C   0  0  0  0  0  0  0  0  0  0  0  0
  -20.7304   15.7649  -24.7566 C   0  0  2  0  0  0  0  0  0  0  0  0
  -20.3933   17.2010  -24.2864 C   0  0  1  0  0  0  0  0  0  0  0  0
  -22.5015   23.1120  -31.9126 C   0  0  0  0  0  0  0  0  0  0  0  0
  -23.3304   14.8152  -27.3600 C   0  0  0  0  0  0  0  0  0  0  0  0
  -20.7244   22.2207  -30.5171 N   0  0  0  0  0  0  0  0  0  0  0  0
  -22.7458   16.1431  -29.3263 N   0  0  0  0  0  0  0  0  0  0  0  0
  -22.9074   21.3424  -30.2841 N   0  0  0  0  0  0  0  0  0  0  0  0
  -22.3325   15.2223  -31.4380 N   0  0  0  0  0  0  0  0  0  0  0  0
  -20.6189   18.2200  -25.2734 N   0  0  0  0  0  0  0  0  0  0  0  0
  -21.8647   15.6940  -25.6400 N   0  0  0  0  0  0  0  0  0  0  0  0
  -22.4744   12.9314  -31.7226 O   0  0  0  0  0  0  0  0  0  0  0  0
  -23.3862   19.6698  -28.7742 O   0  0  0  0  0  0  0  0  0  0  0  0
  -22.2031   17.5003  -31.1027 O   0  0  0  0  0  0  0  0  0  0  0  0
  -18.4270   18.9806  -25.3910 O   0  0  0  0  0  0  0  0  0  0  0  0
  -21.2999   13.7059  -26.7015 O   0  0  0  0  0  0  0  0  0  0  0  0
  -21.9078   13.9730  -19.8620 H   0  0  0  0  0  0  0  0  0  0  0  0
  -21.4415   12.2908  -21.6190 H   0  0  0  0  0  0  0  0  0  0  0  0
  -21.8195   16.4017  -20.3874 H   0  0  0  0  0  0  0  0  0  0  0  0
  -20.8811   13.0068  -23.9329 H   0  0  0  0  0  0  0  0  0  0  0  0
  -23.0861   12.8024  -29.1788 H   0  0  0  0  0  0  0  0  0  0  0  0
  -19.2869   21.3924  -29.2826 H   0  0  0  0  0  0  0  0  0  0  0  0
  -20.7724   18.5205  -28.0981 H   0  0  0  0  0  0  0  0  0  0  0  0
  -19.9695   21.0726  -26.5547 H   0  0  0  0  0  0  0  0  0  0  0  0
  -22.2066   17.8187  -23.2010 H   0  0  0  0  0  0  0  0  0  0  0  0
  -20.6729   18.1267  -22.3198 H   0  0  0  0  0  0  0  0  0  0  0  0
  -19.8724   15.3095  -25.2620 H   0  0  0  0  0  0  0  0  0  0  0  0
  -19.3213   17.2445  -24.0448 H   0  0  0  0  0  0  0  0  0  0  0  0
  -22.4208   22.6282  -32.8828 H   0  0  0  0  0  0  0  0  0  0  0  0
  -21.9206   24.0315  -31.9129 H   0  0  0  0  0  0  0  0  0  0  0  0
  -23.5430   23.3468  -31.7062 H   0  0  0  0  0  0  0  0  0  0  0  0
  -23.9606   13.9414  -27.1662 H   0  0  0  0  0  0  0  0  0  0  0  0
  -23.8926   15.7077  -27.0704 H   0  0  0  0  0  0  0  0  0  0  0  0
  -22.8200   16.9432  -28.7045 H   0  0  0  0  0  0  0  0  0  0  0  0
  -23.8734   21.3748  -30.5968 H   0  0  0  0  0  0  0  0  0  0  0  0
  -22.0906   15.3472  -32.4168 H   0  0  0  0  0  0  0  0  0  0  0  0
  -21.5714   18.3601  -25.6082 H   0  0  0  0  0  0  0  0  0  0  0  0
  -22.5589   16.4375  -25.5968 H   0  0  0  0  0  0  0  0  0  0  0  0
  1  2  1  0  0  0  0
  1  3  2  0  0  0  0
  2  4  2  0  0  0  0
  3  5  1  0  0  0  0
  4  6  1  0  0  0  0
  5  6  2  0  0  0  0
  5 19  1  0  0  0  0
  6 20  1  0  0  0  0
  7 10  2  0  0  0  0
  7 11  1  0  0  0  0
  8  9  2  0  0  0  0
  8 24  1  0  0  0  0
  9 12  1  0  0  0  0
  9 15  1  0  0  0  0
 10 23  1  0  0  0  0
 10 25  1  0  0  0  0
 11 27  1  0  0  0  0
 11 30  2  0  0  0  0
 12 26  1  0  0  0  0
 12 31  2  0  0  0  0
 13 22  1  0  0  0  0
 13 24  2  0  0  0  0
 13 26  1  0  0  0  0
 14 25  1  0  0  0  0
 14 27  1  0  0  0  0
 14 32  2  0  0  0  0
 15 16  2  0  0  0  0
 16 17  1  0  0  0  0
 17 28  1  0  0  0  0
 17 33  2  0  0  0  0
 18 23  1  0  0  0  0
 18 29  1  0  0  0  0
 18 34  2  0  0  0  0
 19 21  1  0  0  0  0
 20 21  1  0  0  0  0
 20 29  1  0  0  0  0
 21 28  1  0  0  0  0
  1 35  1  0  0  0  0
  2 36  1  0  0  0  0
  3 37  1  0  0  0  0
  4 38  1  0  0  0  0
  7 39  1  0  0  0  0
  8 40  1  0  0  0  0
 15 41  1  0  0  0  0
 16 42  1  0  0  0  0
 19 43  1  0  0  0  0
 19 44  1  0  0  0  0
 20 45  1  0  0  0  0
 21 46  1  0  0  0  0
 22 47  1  0  0  0  0
 22 48  1  0  0  0  0
 22 49  1  0  0  0  0
 23 50  1  0  0  0  0
 23 51  1  0  0  0  0
 25 52  1  0  0  0  0
 26 53  1  0  0  0  0
 27 54  1  0  0  0  0
 28 55  1  0  0  0  0
 29 56  1  0  0  0  0
M  END
> <FRED Chemgauss4 score>
-7.089289

$$$$
74
  -OEChem-08042116223D

 58 61  0     1  0  0  0  0  0999 V2000
  -22.8798   11.7876  -30.4588 C   0  0  0  0  0  0  0  0  0  0  0  0
  -22.1066   12.6993  -31.1934 C   0  0  0  0  0  0  0  0  0  0  0  0
  -23.1608   12.0184  -29.1113 C   0  0  0  0  0  0  0  0  0  0  0  0
  -21.6031   13.8551  -30.5913 C   0  0  0  0  0  0  0  0  0  0  0  0
  -22.6686   13.1734  -28.5257 C   0  0  0  0  0  0  0  0  0  0  0  0
  -21.8961   14.0874  -29.2564 C   0  0  0  0  0  0  0  0  0  0  0  0
  -19.9062   22.2111  -25.6697 C   0  0  0  0  0  0  0  0  0  0  0  0
  -22.2815   15.7310  -22.2953 C   0  0  0  0  0  0  0  0  0  0  0  0
  -22.4233   14.0147  -20.8429 C   0  0  0  0  0  0  0  0  0  0  0  0
  -18.9987   21.6704  -26.4959 C   0  0  0  0  0  0  0  0  0  0  0  0
  -21.1924   15.2638  -22.9276 C   0  0  0  0  0  0  0  0  0  0  0  0
  -17.5692   22.0130  -26.2869 C   0  0  0  0  0  0  0  0  0  0  0  0
  -20.6226   13.9705  -22.4499 C   0  0  0  0  0  0  0  0  0  0  0  0
  -18.3868   23.3643  -24.4509 C   0  0  0  0  0  0  0  0  0  0  0  0
  -19.3759   20.7824  -27.5596 C   0  0  0  0  0  0  0  0  0  0  0  0
  -20.0124   19.6229  -27.3507 C   0  0  0  0  0  0  0  0  0  0  0  0
  -20.3721   18.7508  -28.5029 C   0  0  0  0  0  0  0  0  0  0  0  0
  -20.8296   15.2037  -25.3491 C   0  0  0  0  0  0  0  0  0  0  0  0
  -22.8132   13.6075  -27.0993 C   0  0  0  0  0  0  0  0  0  0  0  0
  -21.4454   15.2221  -28.3745 C   0  0  2  0  0  0  0  0  0  0  0  0
  -22.4677   15.1025  -27.2186 C   0  0  2  0  0  0  0  0  0  0  0  0
  -17.9807   24.2908  -23.3416 C   0  0  0  0  0  0  0  0  0  0  0  0
  -20.5257   15.9518  -24.0656 C   0  0  0  0  0  0  0  0  0  0  0  0
  -21.4669   16.5944  -29.0333 C   0  0  0  0  0  0  0  0  0  0  0  0
  -22.9300   15.1332  -21.2434 N   0  0  0  0  0  0  0  0  0  0  0  0
  -19.6362   23.0666  -24.6302 N   0  0  0  0  0  0  0  0  0  0  0  0
  -21.3143   13.4140  -21.3905 N   0  0  0  0  0  0  0  0  0  0  0  0
  -17.3564   22.8770  -25.2283 N   0  0  0  0  0  0  0  0  0  0  0  0
  -21.0284   17.5857  -28.1073 N   0  0  0  0  0  0  0  0  0  0  0  0
  -21.9797   15.6552  -25.9850 N   0  0  0  0  0  0  0  0  0  0  0  0
  -16.6715   21.5652  -26.9937 O   0  0  0  0  0  0  0  0  0  0  0  0
  -19.6299   13.4679  -22.9669 O   0  0  0  0  0  0  0  0  0  0  0  0
  -20.1056   19.0447  -29.6638 O   0  0  0  0  0  0  0  0  0  0  0  0
  -20.1088   14.2956  -25.7597 O   0  0  0  0  0  0  0  0  0  0  0  0
  -23.2572   10.8911  -30.9430 H   0  0  0  0  0  0  0  0  0  0  0  0
  -21.8915   12.4994  -32.2397 H   0  0  0  0  0  0  0  0  0  0  0  0
  -23.7488   11.3069  -28.5414 H   0  0  0  0  0  0  0  0  0  0  0  0
  -20.9922   14.5445  -31.1640 H   0  0  0  0  0  0  0  0  0  0  0  0
  -20.9619   21.9842  -25.7909 H   0  0  0  0  0  0  0  0  0  0  0  0
  -22.7244   16.6698  -22.6148 H   0  0  0  0  0  0  0  0  0  0  0  0
  -22.8606   13.4477  -20.0073 H   0  0  0  0  0  0  0  0  0  0  0  0
  -19.1109   21.1108  -28.5601 H   0  0  0  0  0  0  0  0  0  0  0  0
  -20.2764   19.2953  -26.3499 H   0  0  0  0  0  0  0  0  0  0  0  0
  -23.8291   13.4607  -26.7211 H   0  0  0  0  0  0  0  0  0  0  0  0
  -22.0954   13.0645  -26.4748 H   0  0  0  0  0  0  0  0  0  0  0  0
  -20.4318   14.9941  -28.0179 H   0  0  0  0  0  0  0  0  0  0  0  0
  -23.3826   15.6598  -27.4680 H   0  0  0  0  0  0  0  0  0  0  0  0
  -17.7827   23.7130  -22.4422 H   0  0  0  0  0  0  0  0  0  0  0  0
  -18.7821   25.0009  -23.1512 H   0  0  0  0  0  0  0  0  0  0  0  0
  -17.0841   24.8328  -23.6330 H   0  0  0  0  0  0  0  0  0  0  0  0
  -19.4400   15.9536  -23.9264 H   0  0  0  0  0  0  0  0  0  0  0  0
  -20.8618   16.9918  -24.1115 H   0  0  0  0  0  0  0  0  0  0  0  0
  -20.7987   16.5549  -29.8936 H   0  0  0  0  0  0  0  0  0  0  0  0
  -22.4927   16.7917  -29.3450 H   0  0  0  0  0  0  0  0  0  0  0  0
  -20.9893   12.5317  -21.0065 H   0  0  0  0  0  0  0  0  0  0  0  0
  -16.4000   23.1544  -25.0273 H   0  0  0  0  0  0  0  0  0  0  0  0
  -21.1757   17.4213  -27.1067 H   0  0  0  0  0  0  0  0  0  0  0  0
  -22.5031   16.4163  -25.5552 H   0  0  0  0  0  0  0  0  0  0  0  0
  1  2  1  0  0  0  0
  1  3  2  0  0  0  0
  2  4  2  0  0  0  0
  3  5  1  0  0  0  0
  4  6  1  0  0  0  0
  5  6  2  0  0  0  0
  5 19  1  0  0  0  0
  6 20  1  0  0  0  0
  7 10  2  0  0  0  0
  7 26  1  0  0  0  0
  8 11  2  0  0  0  0
  8 25  1  0  0  0  0
  9 25  2  0  0  0  0
  9 27  1  0  0  0  0
 10 12  1  0  0  0  0
 10 15  1  0  0  0  0
 11 13  1  0  0  0  0
 11 23  1  0  0  0  0
 12 28  1  0  0  0  0
 12 31  2  0  0  0  0
 13 27  1  0  0  0  0
 13 32  2  0  0  0  0
 14 22  1  0  0  0  0
 14 26  2  0  0  0  0
 14 28  1  0  0  0  0
 15 16  2  0  0  0  0
 16 17  1  0  0  0  0
 17 29  1  0  0  0  0
 17 33  2  0  0  0  0
 18 23  1  0  0  0  0
 18 30  1  0  0  0  0
 18 34  2  0  0  0  0
 19 21  1  0  0  0  0
 20 21  1  0  0  0  0
 20 24  1  0  0  0  0
 21 30  1  0  0  0  0
 24 29  1  0  0  0  0
  1 35  1  0  0  0  0
  2 36  1  0  0  0  0
  3 37  1  0  0  0  0
  4 38  1  0  0  0  0
  7 39  1  0  0  0  0
  8 40  1  0  0  0  0
  9 41  1  0  0  0  0
 15 42  1  0  0  0  0
 16 43  1  0  0  0  0
 19 44  1  0  0  0  0
 19 45  1  0  0  0  0
 20 46  1  0  0  0  0
 21 47  1  0  0  0  0
 22 48  1  0  0  0  0
 22 49  1  0  0  0  0
 22 50  1  0  0  0  0
 23 51  1  0  0  0  0
 23 52  1  0  0  0  0
 24 53  1  0  0  0  0
 24 54  1  0  0  0  0
 27 55  1  0  0  0  0
 28 56  1  0  0  0  0
 29 57  1  0  0  0  0
 30 58  1  0  0  0  0
M  END
> <FRED Chemgauss4 score>
-7.696574

$$$$
89
  -OEChem-08042116223D

 55 58  0     1  0  0  0  0  0999 V2000
  -21.9028   13.9153  -19.9156 C   0  0  0  0  0  0  0  0  0  0  0  0
  -23.0453   14.6943  -20.0726 C   0  0  0  0  0  0  0  0  0  0  0  0
  -20.9775   13.8150  -20.9549 C   0  0  0  0  0  0  0  0  0  0  0  0
  -23.2669   15.3761  -21.2695 C   0  0  0  0  0  0  0  0  0  0  0  0
  -20.2635   14.4048  -23.2232 C   0  0  0  0  0  0  0  0  0  0  0  0
  -20.4851   15.0865  -24.4201 C   0  0  0  0  0  0  0  0  0  0  0  0
  -22.5530   15.9658  -23.5379 C   0  0  0  0  0  0  0  0  0  0  0  0
  -21.1843   14.4944  -22.1666 C   0  0  0  0  0  0  0  0  0  0  0  0
  -22.3462   15.2865  -22.3262 C   0  0  0  0  0  0  0  0  0  0  0  0
  -21.6276   15.8655  -24.5772 C   0  0  0  0  0  0  0  0  0  0  0  0
  -21.9193   17.9037  -30.6864 C   0  0  0  0  0  0  0  0  0  0  0  0
  -23.9936   16.8205  -31.3408 C   0  0  0  0  0  0  0  0  0  0  0  0
  -17.1935   21.0953  -26.2547 C   0  0  0  0  0  0  0  0  0  0  0  0
  -22.0128   18.7628  -31.7077 C   0  0  0  0  0  0  0  0  0  0  0  0
  -16.0676   23.0478  -26.1810 C   0  0  0  0  0  0  0  0  0  0  0  0
  -22.9465   16.9065  -30.5072 C   0  0  0  0  0  0  0  0  0  0  0  0
  -18.2267   21.5398  -25.5230 C   0  0  0  0  0  0  0  0  0  0  0  0
  -24.0973   17.7808  -32.4818 C   0  0  0  0  0  0  0  0  0  0  0  0
  -18.1928   22.9449  -25.0396 C   0  0  0  0  0  0  0  0  0  0  0  0
  -19.3465   20.6990  -25.2044 C   0  0  0  0  0  0  0  0  0  0  0  0
  -19.7642   19.7074  -26.0016 C   0  0  0  0  0  0  0  0  0  0  0  0
  -22.8766   15.9437  -29.3928 C   0  0  0  0  0  0  0  0  0  0  0  0
  -20.9347   18.8755  -25.6072 C   0  0  0  0  0  0  0  0  0  0  0  0
  -21.9749   15.6741  -27.0972 C   0  0  0  0  0  0  0  0  0  0  0  0
  -21.8627   16.5938  -25.8575 C   0  0  2  0  0  0  0  0  0  0  0  0
  -16.0858   21.8279  -26.6070 N   0  0  0  0  0  0  0  0  0  0  0  0
  -23.0696   18.7059  -32.5819 N   0  0  0  0  0  0  0  0  0  0  0  0
  -17.0565   23.6324  -25.4237 N   0  0  0  0  0  0  0  0  0  0  0  0
  -22.1745   16.4317  -28.3050 N   0  0  0  0  0  0  0  0  0  0  0  0
  -20.8192   17.6093  -26.1095 N   0  0  0  0  0  0  0  0  0  0  0  0
  -25.0476   17.7206  -33.2579 O   0  0  0  0  0  0  0  0  0  0  0  0
  -19.0933   23.4348  -24.3653 O   0  0  0  0  0  0  0  0  0  0  0  0
  -23.4084   14.8427  -29.4841 O   0  0  0  0  0  0  0  0  0  0  0  0
  -21.8568   19.3116  -24.9256 O   0  0  0  0  0  0  0  0  0  0  0  0
  -21.7313   13.3848  -18.9837 H   0  0  0  0  0  0  0  0  0  0  0  0
  -23.7654   14.7715  -19.2633 H   0  0  0  0  0  0  0  0  0  0  0  0
  -20.0912   13.2005  -20.8095 H   0  0  0  0  0  0  0  0  0  0  0  0
  -24.1672   15.9790  -21.3702 H   0  0  0  0  0  0  0  0  0  0  0  0
  -19.3635   13.8014  -23.1226 H   0  0  0  0  0  0  0  0  0  0  0  0
  -19.7594   15.0028  -25.2248 H   0  0  0  0  0  0  0  0  0  0  0  0
  -23.4426   16.5789  -23.6737 H   0  0  0  0  0  0  0  0  0  0  0  0
  -21.0856   17.9472  -29.9950 H   0  0  0  0  0  0  0  0  0  0  0  0
  -24.7815   16.0836  -31.2344 H   0  0  0  0  0  0  0  0  0  0  0  0
  -17.1830   20.0741  -26.6256 H   0  0  0  0  0  0  0  0  0  0  0  0
  -21.2765   19.5334  -31.8970 H   0  0  0  0  0  0  0  0  0  0  0  0
  -15.2296   23.7259  -26.4035 H   0  0  0  0  0  0  0  0  0  0  0  0
  -19.8435   20.9172  -24.2640 H   0  0  0  0  0  0  0  0  0  0  0  0
  -19.2668   19.4904  -26.9419 H   0  0  0  0  0  0  0  0  0  0  0  0
  -21.0604   15.0888  -27.2471 H   0  0  0  0  0  0  0  0  0  0  0  0
  -22.8089   14.9694  -27.0115 H   0  0  0  0  0  0  0  0  0  0  0  0
  -22.8145   17.1552  -25.7962 H   0  0  0  0  0  0  0  0  0  0  0  0
  -23.0903   19.3826  -33.3393 H   0  0  0  0  0  0  0  0  0  0  0  0
  -16.9521   24.6006  -25.1350 H   0  0  0  0  0  0  0  0  0  0  0  0
  -21.7811   17.3696  -28.3612 H   0  0  0  0  0  0  0  0  0  0  0  0
  -20.0553   17.3188  -26.6871 H   0  0  0  0  0  0  0  0  0  0  0  0
  1  2  1  0  0  0  0
  1  3  2  0  0  0  0
  2  4  2  0  0  0  0
  3  8  1  0  0  0  0
  4  9  1  0  0  0  0
  5  6  2  0  0  0  0
  5  8  1  0  0  0  0
  6 10  1  0  0  0  0
  7  9  1  0  0  0  0
  7 10  2  0  0  0  0
  8  9  2  0  0  0  0
 10 25  1  0  0  0  0
 11 14  2  0  0  0  0
 11 16  1  0  0  0  0
 12 16  2  0  0  0  0
 12 18  1  0  0  0  0
 13 17  2  0  0  0  0
 13 26  1  0  0  0  0
 14 27  1  0  0  0  0
 15 26  2  0  0  0  0
 15 28  1  0  0  0  0
 16 22  1  0  0  0  0
 17 19  1  0  0  0  0
 17 20  1  0  0  0  0
 18 27  1  0  0  0  0
 18 31  2  0  0  0  0
 19 28  1  0  0  0  0
 19 32  2  0  0  0  0
 20 21  2  0  0  0  0
 21 23  1  0  0  0  0
 22 29  1  0  0  0  0
 22 33  2  0  0  0  0
 23 30  1  0  0  0  0
 23 34  2  0  0  0  0
 24 25  1  0  0  0  0
 24 29  1  0  0  0  0
 25 30  1  0  0  0  0
  1 35  1  0  0  0  0
  2 36  1  0  0  0  0
  3 37  1  0  0  0  0
  4 38  1  0  0  0  0
  5 39  1  0  0  0  0
  6 40  1  0  0  0  0
  7 41  1  0  0  0  0
 11 42  1  0  0  0  0
 12 43  1  0  0  0  0
 13 44  1  0  0  0  0
 14 45  1  0  0  0  0
 15 46  1  0  0  0  0
 20 47  1  0  0  0  0
 21 48  1  0  0  0  0
 24 49  1  0  0  0  0
 24 50  1  0  0  0  0
 25 51  1  0  0  0  0
 27 52  1  0  0  0  0
 28 53  1  0  0  0  0
 29 54  1  0  0  0  0
 30 55  1  0  0  0  0
M  END
> <FRED Chemgauss4 score>
-6.132228

$$$$
91
  -OEChem-08042116223D

 52 55  0     1  0  0  0  0  0999 V2000
  -20.8152   13.8132  -20.9408 C   0  0  0  0  0  0  0  0  0  0  0  0
  -21.4357   15.0524  -20.7176 C   0  0  0  0  0  0  0  0  0  0  0  0
  -20.4329   13.4295  -22.2279 C   0  0  0  0  0  0  0  0  0  0  0  0
  -21.6819   15.9270  -21.7781 C   0  0  0  0  0  0  0  0  0  0  0  0
  -20.6916   14.2971  -23.2758 C   0  0  0  0  0  0  0  0  0  0  0  0
  -21.3062   15.5366  -23.0535 C   0  0  0  0  0  0  0  0  0  0  0  0
  -17.1422   21.1288  -26.2194 C   0  0  0  0  0  0  0  0  0  0  0  0
  -16.2416   23.1573  -25.8203 C   0  0  0  0  0  0  0  0  0  0  0  0
  -18.3724   21.4755  -25.8110 C   0  0  0  0  0  0  0  0  0  0  0  0
  -18.5883   22.8661  -25.3326 C   0  0  0  0  0  0  0  0  0  0  0  0
  -23.0352   16.0034  -31.0385 C   0  0  0  0  0  0  0  0  0  0  0  0
  -21.4243   17.2658  -30.0448 C   0  0  0  0  0  0  0  0  0  0  0  0
  -19.4665   20.5454  -25.8281 C   0  0  0  0  0  0  0  0  0  0  0  0
  -19.4596   19.3984  -25.1370 C   0  0  0  0  0  0  0  0  0  0  0  0
  -20.6303   18.4804  -25.2028 C   0  0  0  0  0  0  0  0  0  0  0  0
  -20.5520   14.7516  -27.7244 C   0  0  0  0  0  0  0  0  0  0  0  0
  -20.3455   14.1197  -24.7223 C   0  0  0  0  0  0  0  0  0  0  0  0
  -22.1282   15.0237  -30.3266 C   0  0  0  0  0  0  0  0  0  0  0  0
  -21.4411   16.3084  -24.3335 C   0  0  2  0  0  0  0  0  0  0  0  0
  -21.2604   15.1750  -25.3726 C   0  0  1  0  0  0  0  0  0  0  0  0
  -20.0431   15.4916  -28.9350 C   0  0  0  0  0  0  0  0  0  0  0  0
  -16.0416   21.9511  -26.2386 N   0  0  0  0  0  0  0  0  0  0  0  0
  -17.4478   23.6464  -25.3741 N   0  0  0  0  0  0  0  0  0  0  0  0
  -22.5604   17.2744  -30.8273 N   0  0  0  0  0  0  0  0  0  0  0  0
  -21.1794   15.9341  -29.7563 N   0  0  0  0  0  0  0  0  0  0  0  0
  -20.4473   17.3456  -24.4263 N   0  0  0  0  0  0  0  0  0  0  0  0
  -20.7724   15.6107  -26.6515 N   0  0  0  0  0  0  0  0  0  0  0  0
  -19.6791   23.2696  -24.9411 O   0  0  0  0  0  0  0  0  0  0  0  0
  -24.0216   15.6863  -31.6879 O   0  0  0  0  0  0  0  0  0  0  0  0
  -20.7837   18.2472  -29.6924 O   0  0  0  0  0  0  0  0  0  0  0  0
  -21.6255   18.7244  -25.8776 O   0  0  0  0  0  0  0  0  0  0  0  0
  -20.7455   13.5389  -27.7055 O   0  0  0  0  0  0  0  0  0  0  0  0
  -20.6272   13.1485  -20.1018 H   0  0  0  0  0  0  0  0  0  0  0  0
  -21.7226   15.3347  -19.7083 H   0  0  0  0  0  0  0  0  0  0  0  0
  -19.9457   12.4752  -22.3963 H   0  0  0  0  0  0  0  0  0  0  0  0
  -22.1539   16.8876  -21.6014 H   0  0  0  0  0  0  0  0  0  0  0  0
  -16.9461   20.1214  -26.5759 H   0  0  0  0  0  0  0  0  0  0  0  0
  -15.4313   23.9017  -25.7921 H   0  0  0  0  0  0  0  0  0  0  0  0
  -20.3141   20.8305  -26.4441 H   0  0  0  0  0  0  0  0  0  0  0  0
  -18.6115   19.1141  -24.5219 H   0  0  0  0  0  0  0  0  0  0  0  0
  -19.2837   14.3418  -24.8766 H   0  0  0  0  0  0  0  0  0  0  0  0
  -20.5765   13.1132  -25.0834 H   0  0  0  0  0  0  0  0  0  0  0  0
  -22.6658   14.4891  -29.5410 H   0  0  0  0  0  0  0  0  0  0  0  0
  -21.6376   14.3543  -31.0361 H   0  0  0  0  0  0  0  0  0  0  0  0
  -22.4293   16.7700  -24.4292 H   0  0  0  0  0  0  0  0  0  0  0  0
  -22.2426   14.7180  -25.5623 H   0  0  0  0  0  0  0  0  0  0  0  0
  -19.4665   16.3653  -28.6172 H   0  0  0  0  0  0  0  0  0  0  0  0
  -19.4043   14.8331  -29.5307 H   0  0  0  0  0  0  0  0  0  0  0  0
  -17.5066   24.6118  -25.0640 H   0  0  0  0  0  0  0  0  0  0  0  0
  -22.9905   18.1133  -31.1994 H   0  0  0  0  0  0  0  0  0  0  0  0
  -19.5724   17.2140  -23.9224 H   0  0  0  0  0  0  0  0  0  0  0  0
  -20.5768   16.6032  -26.7804 H   0  0  0  0  0  0  0  0  0  0  0  0
  1  2  1  0  0  0  0
  1  3  2  0  0  0  0
  2  4  2  0  0  0  0
  3  5  1  0  0  0  0
  4  6  1  0  0  0  0
  5  6  2  0  0  0  0
  5 17  1  0  0  0  0
  6 19  1  0  0  0  0
  7  9  2  0  0  0  0
  7 22  1  0  0  0  0
  8 22  2  0  0  0  0
  8 23  1  0  0  0  0
  9 10  1  0  0  0  0
  9 13  1  0  0  0  0
 10 23  1  0  0  0  0
 10 28  2  0  0  0  0
 11 18  1  0  0  0  0
 11 24  1  0  0  0  0
 11 29  2  0  0  0  0
 12 24  1  0  0  0  0
 12 25  1  0  0  0  0
 12 30  2  0  0  0  0
 13 14  2  0  0  0  0
 14 15  1  0  0  0  0
 15 26  1  0  0  0  0
 15 31  2  0  0  0  0
 16 21  1  0  0  0  0
 16 27  1  0  0  0  0
 16 32  2  0  0  0  0
 17 20  1  0  0  0  0
 18 25  1  0  0  0  0
 19 20  1  0  0  0  0
 19 26  1  0  0  0  0
 20 27  1  0  0  0  0
 21 25  1  0  0  0  0
  1 33  1  0  0  0  0
  2 34  1  0  0  0  0
  3 35  1  0  0  0  0
  4 36  1  0  0  0  0
  7 37  1  0  0  0  0
  8 38  1  0  0  0  0
 13 39  1  0  0  0  0
 14 40  1  0  0  0  0
 17 41  1  0  0  0  0
 17 42  1  0  0  0  0
 18 43  1  0  0  0  0
 18 44  1  0  0  0  0
 19 45  1  0  0  0  0
 20 46  1  0  0  0  0
 21 47  1  0  0  0  0
 21 48  1  0  0  0  0
 23 49  1  0  0  0  0
 24 50  1  0  0  0  0
 26 51  1  0  0  0  0
 27 52  1  0  0  0  0
M  END
> <FRED Chemgauss4 score>
-10.636624

$$$$
69
  -OEChem-08042116223D

 56 59  0     1  0  0  0  0  0999 V2000
  -23.0955   13.8460  -31.3520 C   0  0  0  0  0  0  0  0  0  0  0  0
  -23.1384   12.9831  -30.2465 C   0  0  0  0  0  0  0  0  0  0  0  0
  -22.4691   15.0897  -31.2587 C   0  0  0  0  0  0  0  0  0  0  0  0
  -22.5557   13.3513  -29.0313 C   0  0  0  0  0  0  0  0  0  0  0  0
  -21.8824   15.4412  -30.0539 C   0  0  0  0  0  0  0  0  0  0  0  0
  -21.9225   14.5817  -28.9468 C   0  0  0  0  0  0  0  0  0  0  0  0
  -22.0984   18.0652  -20.9246 C   0  0  0  0  0  0  0  0  0  0  0  0
  -21.9276   16.7544  -20.7571 C   0  0  0  0  0  0  0  0  0  0  0  0
  -19.1761   21.9037  -25.2358 C   0  0  0  0  0  0  0  0  0  0  0  0
  -17.9802   23.5696  -24.2979 C   0  0  0  0  0  0  0  0  0  0  0  0
  -18.2858   21.6691  -26.2120 C   0  0  0  0  0  0  0  0  0  0  0  0
  -21.4331   18.7836  -22.0277 C   0  0  0  0  0  0  0  0  0  0  0  0
  -21.0685   15.9653  -21.6660 C   0  0  0  0  0  0  0  0  0  0  0  0
  -17.0531   22.4985  -26.2531 C   0  0  0  0  0  0  0  0  0  0  0  0
  -18.4965   20.6486  -27.2002 C   0  0  0  0  0  0  0  0  0  0  0  0
  -19.1894   19.5290  -26.9563 C   0  0  0  0  0  0  0  0  0  0  0  0
  -19.3671   18.5124  -28.0299 C   0  0  0  0  0  0  0  0  0  0  0  0
  -20.4571   15.1490  -24.5660 C   0  0  0  0  0  0  0  0  0  0  0  0
  -21.1919   16.7265  -29.7148 C   0  0  0  0  0  0  0  0  0  0  0  0
  -21.2617   15.2236  -27.7553 C   0  0  2  0  0  0  0  0  0  0  0  0
  -20.4094   16.3082  -28.4573 C   0  0  2  0  0  0  0  0  0  0  0  0
  -19.6090   15.9503  -23.6117 C   0  0  0  0  0  0  0  0  0  0  0  0
  -20.4219   14.2822  -26.9030 C   0  0  0  0  0  0  0  0  0  0  0  0
  -19.0558   22.8548  -24.2517 N   0  0  0  0  0  0  0  0  0  0  0  0
  -16.9866   23.4373  -25.2405 N   0  0  0  0  0  0  0  0  0  0  0  0
  -20.6418   18.0284  -22.8546 N   0  0  0  0  0  0  0  0  0  0  0  0
  -20.4757   16.6750  -22.6708 N   0  0  0  0  0  0  0  0  0  0  0  0
  -20.1095   17.4215  -27.5994 N   0  0  0  0  0  0  0  0  0  0  0  0
  -19.8438   14.9974  -25.8135 N   0  0  0  0  0  0  0  0  0  0  0  0
  -21.6039   19.9931  -22.1641 O   0  0  0  0  0  0  0  0  0  0  0  0
  -20.9447   14.7575  -21.4687 O   0  0  0  0  0  0  0  0  0  0  0  0
  -16.1860   22.3534  -27.1092 O   0  0  0  0  0  0  0  0  0  0  0  0
  -18.8965   18.6487  -29.1547 O   0  0  0  0  0  0  0  0  0  0  0  0
  -21.5555   14.6866  -24.2690 O   0  0  0  0  0  0  0  0  0  0  0  0
  -23.5600   13.5444  -32.2869 H   0  0  0  0  0  0  0  0  0  0  0  0
  -23.6371   12.0217  -30.3354 H   0  0  0  0  0  0  0  0  0  0  0  0
  -22.4468   15.7607  -32.1106 H   0  0  0  0  0  0  0  0  0  0  0  0
  -22.6097   12.6838  -28.1781 H   0  0  0  0  0  0  0  0  0  0  0  0
  -22.7300   18.6370  -20.2542 H   0  0  0  0  0  0  0  0  0  0  0  0
  -22.4180   16.2292  -19.9450 H   0  0  0  0  0  0  0  0  0  0  0  0
  -20.0888   21.3176  -25.1734 H   0  0  0  0  0  0  0  0  0  0  0  0
  -17.7792   24.3607  -23.5595 H   0  0  0  0  0  0  0  0  0  0  0  0
  -18.0541   20.8403  -28.1732 H   0  0  0  0  0  0  0  0  0  0  0  0
  -19.6309   19.3381  -25.9830 H   0  0  0  0  0  0  0  0  0  0  0  0
  -20.5202   17.0602  -30.5113 H   0  0  0  0  0  0  0  0  0  0  0  0
  -21.9378   17.4999  -29.5011 H   0  0  0  0  0  0  0  0  0  0  0  0
  -22.0449   15.6869  -27.1402 H   0  0  0  0  0  0  0  0  0  0  0  0
  -19.4424   15.8842  -28.7651 H   0  0  0  0  0  0  0  0  0  0  0  0
  -18.9508   15.2796  -23.0515 H   0  0  0  0  0  0  0  0  0  0  0  0
  -19.0028   16.6703  -24.1692 H   0  0  0  0  0  0  0  0  0  0  0  0
  -21.0823   13.4969  -26.5352 H   0  0  0  0  0  0  0  0  0  0  0  0
  -19.6426   13.8686  -27.5431 H   0  0  0  0  0  0  0  0  0  0  0  0
  -16.1760   24.0476  -25.1945 H   0  0  0  0  0  0  0  0  0  0  0  0
  -20.1528   18.4565  -23.6345 H   0  0  0  0  0  0  0  0  0  0  0  0
  -20.4341   17.3827  -26.6343 H   0  0  0  0  0  0  0  0  0  0  0  0
  -18.9233   15.4263  -25.9531 H   0  0  0  0  0  0  0  0  0  0  0  0
  1  2  1  0  0  0  0
  1  3  2  0  0  0  0
  2  4  2  0  0  0  0
  3  5  1  0  0  0  0
  4  6  1  0  0  0  0
  5  6  2  0  0  0  0
  5 19  1  0  0  0  0
  6 20  1  0  0  0  0
  7  8  2  0  0  0  0
  7 12  1  0  0  0  0
  8 13  1  0  0  0  0
  9 11  2  0  0  0  0
  9 24  1  0  0  0  0
 10 24  2  0  0  0  0
 10 25  1  0  0  0  0
 11 14  1  0  0  0  0
 11 15  1  0  0  0  0
 12 26  1  0  0  0  0
 12 30  2  0  0  0  0
 13 27  1  0  0  0  0
 13 31  2  0  0  0  0
 14 25  1  0  0  0  0
 14 32  2  0  0  0  0
 15 16  2  0  0  0  0
 16 17  1  0  0  0  0
 17 28  1  0  0  0  0
 17 33  2  0  0  0  0
 18 22  1  0  0  0  0
 18 29  1  0  0  0  0
 18 34  2  0  0  0  0
 19 21  1  0  0  0  0
 20 21  1  0  0  0  0
 20 23  1  0  0  0  0
 21 28  1  0  0  0  0
 22 27  1  0  0  0  0
 23 29  1  0  0  0  0
 26 27  1  0  0  0  0
  1 35  1  0  0  0  0
  2 36  1  0  0  0  0
  3 37  1  0  0  0  0
  4 38  1  0  0  0  0
  7 39  1  0  0  0  0
  8 40  1  0  0  0  0
  9 41  1  0  0  0  0
 10 42  1  0  0  0  0
 15 43  1  0  0  0  0
 16 44  1  0  0  0  0
 19 45  1  0  0  0  0
 19 46  1  0  0  0  0
 20 47  1  0  0  0  0
 21 48  1  0  0  0  0
 22 49  1  0  0  0  0
 22 50  1  0  0  0  0
 23 51  1  0  0  0  0
 23 52  1  0  0  0  0
 25 53  1  0  0  0  0
 26 54  1  0  0  0  0
 28 55  1  0  0  0  0
 29 56  1  0  0  0  0
M  END
> <FRED Chemgauss4 score>
-8.315249

$$$$
86
  -OEChem-08042116223D

 59 62  0     1  0  0  0  0  0999 V2000
  -24.3557   19.7569  -32.4885 C   0  0  0  0  0  0  0  0  0  0  0  0
  -23.4984   20.7338  -31.9906 C   0  0  0  0  0  0  0  0  0  0  0  0
  -24.5222   18.5575  -31.7970 C   0  0  0  0  0  0  0  0  0  0  0  0
  -22.8076   20.5136  -30.7996 C   0  0  0  0  0  0  0  0  0  0  0  0
  -23.8276   18.3198  -30.6015 C   0  0  0  0  0  0  0  0  0  0  0  0
  -22.9662   19.3111  -30.0931 C   0  0  0  0  0  0  0  0  0  0  0  0
  -18.5376   24.0483  -24.6610 C   0  0  0  0  0  0  0  0  0  0  0  0
  -17.4320   23.6004  -25.2545 C   0  0  0  0  0  0  0  0  0  0  0  0
  -20.5634   13.9161  -24.8769 C   0  0  0  0  0  0  0  0  0  0  0  0
  -21.4565   14.9130  -24.9606 C   0  0  0  0  0  0  0  0  0  0  0  0
  -19.7565   23.2199  -24.5998 C   0  0  0  0  0  0  0  0  0  0  0  0
  -17.3777   22.2588  -25.8744 C   0  0  0  0  0  0  0  0  0  0  0  0
  -21.5868   15.8356  -23.8046 C   0  0  0  0  0  0  0  0  0  0  0  0
  -19.8594   14.4688  -22.7978 C   0  0  0  0  0  0  0  0  0  0  0  0
  -22.2744   15.1019  -26.1252 C   0  0  0  0  0  0  0  0  0  0  0  0
  -21.7685   15.3314  -27.3415 C   0  0  0  0  0  0  0  0  0  0  0  0
  -22.7005   15.5130  -28.4720 C   0  0  0  0  0  0  0  0  0  0  0  0
  -19.3165   20.2144  -27.6805 C   0  0  0  0  0  0  0  0  0  0  0  0
  -24.0542   17.0178  -29.8727 C   0  0  0  0  0  0  0  0  0  0  0  0
  -22.8660   18.0045  -27.9485 C   0  0  0  0  0  0  0  0  0  0  0  0
  -22.1974   19.0883  -28.8048 C   0  0  1  0  0  0  0  0  0  0  0  0
  -19.0087   14.2815  -21.5750 C   0  0  0  0  0  0  0  0  0  0  0  0
  -18.5437   20.1866  -26.3865 C   0  0  0  0  0  0  0  0  0  0  0  0
  -20.7362   18.7384  -29.1017 C   0  0  0  0  0  0  0  0  0  0  0  0
  -19.7426   13.6616  -23.8060 N   0  0  0  0  0  0  0  0  0  0  0  0
  -20.7377   15.5321  -22.7561 N   0  0  0  0  0  0  0  0  0  0  0  0
  -19.6790   21.9813  -25.1830 N   0  0  0  0  0  0  0  0  0  0  0  0
  -18.5301   21.5308  -25.7912 N   0  0  0  0  0  0  0  0  0  0  0  0
  -23.1370   16.8058  -28.7509 N   0  0  0  0  0  0  0  0  0  0  0  0
  -19.9403   18.9904  -27.9494 N   0  0  0  0  0  0  0  0  0  0  0  0
  -20.7658   23.6524  -24.0477 O   0  0  0  0  0  0  0  0  0  0  0  0
  -16.3324   21.8921  -26.4090 O   0  0  0  0  0  0  0  0  0  0  0  0
  -22.3769   16.7745  -23.7935 O   0  0  0  0  0  0  0  0  0  0  0  0
  -23.0318   14.5108  -29.1079 O   0  0  0  0  0  0  0  0  0  0  0  0
  -19.3856   21.2036  -28.4052 O   0  0  0  0  0  0  0  0  0  0  0  0
  -24.8931   19.9272  -33.4168 H   0  0  0  0  0  0  0  0  0  0  0  0
  -23.3667   21.6674  -32.5298 H   0  0  0  0  0  0  0  0  0  0  0  0
  -25.1966   17.8041  -32.1965 H   0  0  0  0  0  0  0  0  0  0  0  0
  -22.1430   21.2873  -30.4216 H   0  0  0  0  0  0  0  0  0  0  0  0
  -18.5697   25.0329  -24.2085 H   0  0  0  0  0  0  0  0  0  0  0  0
  -16.5376   24.2120  -25.2980 H   0  0  0  0  0  0  0  0  0  0  0  0
  -20.4392   13.2205  -25.7024 H   0  0  0  0  0  0  0  0  0  0  0  0
  -23.3473   15.0488  -25.9634 H   0  0  0  0  0  0  0  0  0  0  0  0
  -20.7057   15.3915  -27.5421 H   0  0  0  0  0  0  0  0  0  0  0  0
  -25.0652   17.0028  -29.4646 H   0  0  0  0  0  0  0  0  0  0  0  0
  -23.9342   16.2054  -30.5877 H   0  0  0  0  0  0  0  0  0  0  0  0
  -22.2463   17.7665  -27.0847 H   0  0  0  0  0  0  0  0  0  0  0  0
  -23.8313   18.3546  -27.5751 H   0  0  0  0  0  0  0  0  0  0  0  0
  -22.2145   20.0192  -28.2212 H   0  0  0  0  0  0  0  0  0  0  0  0
  -18.0866   14.8465  -21.6861 H   0  0  0  0  0  0  0  0  0  0  0  0
  -18.7783   13.2257  -21.4526 H   0  0  0  0  0  0  0  0  0  0  0  0
  -19.5505   14.6333  -20.7002 H   0  0  0  0  0  0  0  0  0  0  0  0
  -19.0172   19.4888  -25.6896 H   0  0  0  0  0  0  0  0  0  0  0  0
  -17.5147   19.8672  -26.5759 H   0  0  0  0  0  0  0  0  0  0  0  0
  -20.7081   17.6841  -29.3672 H   0  0  0  0  0  0  0  0  0  0  0  0
  -20.4207   19.3645  -29.9332 H   0  0  0  0  0  0  0  0  0  0  0  0
  -20.7731   16.1232  -21.9307 H   0  0  0  0  0  0  0  0  0  0  0  0
  -20.4799   21.3573  -25.1791 H   0  0  0  0  0  0  0  0  0  0  0  0
  -19.8159   18.2278  -27.2738 H   0  0  0  0  0  0  0  0  0  0  0  0
  1  2  1  0  0  0  0
  1  3  2  0  0  0  0
  2  4  2  0  0  0  0
  3  5  1  0  0  0  0
  4  6  1  0  0  0  0
  5  6  2  0  0  0  0
  5 19  1  0  0  0  0
  6 21  1  0  0  0  0
  7  8  2  0  0  0  0
  7 11  1  0  0  0  0
  8 12  1  0  0  0  0
  9 10  2  0  0  0  0
  9 25  1  0  0  0  0
 10 13  1  0  0  0  0
 10 15  1  0  0  0  0
 11 27  1  0  0  0  0
 11 31  2  0  0  0  0
 12 28  1  0  0  0  0
 12 32  2  0  0  0  0
 13 26  1  0  0  0  0
 13 33  2  0  0  0  0
 14 22  1  0  0  0  0
 14 25  2  0  0  0  0
 14 26  1  0  0  0  0
 15 16  2  0  0  0  0
 16 17  1  0  0  0  0
 17 29  1  0  0  0  0
 17 34  2  0  0  0  0
 18 23  1  0  0  0  0
 18 30  1  0  0  0  0
 18 35  2  0  0  0  0
 19 29  1  0  0  0  0
 20 21  1  0  0  0  0
 20 29  1  0  0  0  0
 21 24  1  0  0  0  0
 23 28  1  0  0  0  0
 24 30  1  0  0  0  0
 27 28  1  0  0  0  0
  1 36  1  0  0  0  0
  2 37  1  0  0  0  0
  3 38  1  0  0  0  0
  4 39  1  0  0  0  0
  7 40  1  0  0  0  0
  8 41  1  0  0  0  0
  9 42  1  0  0  0  0
 15 43  1  0  0  0  0
 16 44  1  0  0  0  0
 19 45  1  0  0  0  0
 19 46  1  0  0  0  0
 20 47  1  0  0  0  0
 20 48  1  0  0  0  0
 21 49  1  0  0  0  0
 22 50  1  0  0  0  0
 22 51  1  0  0  0  0
 22 52  1  0  0  0  0
 23 53  1  0  0  0  0
 23 54  1  0  0  0  0
 24 55  1  0  0  0  0
 24 56  1  0  0  0  0
 26 57  1  0  0  0  0
 27 58  1  0  0  0  0
 30 59  1  0  0  0  0
M  END
> <FRED Chemgauss4 score>
-8.295271

$$$$
51
  -OEChem-08042116223D

 56 59  0     1  0  0  0  0  0999 V2000
  -24.4764   17.4181  -31.8297 C   0  0  0  0  0  0  0  0  0  0  0  0
  -24.0194   18.7427  -31.7590 C   0  0  0  0  0  0  0  0  0  0  0  0
  -23.6840   16.3676  -31.3643 C   0  0  0  0  0  0  0  0  0  0  0  0
  -22.7644   19.0357  -31.2201 C   0  0  0  0  0  0  0  0  0  0  0  0
  -22.4462   16.6686  -30.8197 C   0  0  0  0  0  0  0  0  0  0  0  0
  -21.9881   17.9906  -30.7423 C   0  0  0  0  0  0  0  0  0  0  0  0
  -19.1435   22.5201  -25.6993 C   0  0  0  0  0  0  0  0  0  0  0  0
  -20.3286   15.0680  -22.3725 C   0  0  0  0  0  0  0  0  0  0  0  0
  -18.0590   24.0686  -24.4700 C   0  0  0  0  0  0  0  0  0  0  0  0
  -18.0337   22.0628  -26.2989 C   0  0  0  0  0  0  0  0  0  0  0  0
  -21.0665   15.3710  -23.4506 C   0  0  0  0  0  0  0  0  0  0  0  0
  -16.7337   22.6896  -25.9436 C   0  0  0  0  0  0  0  0  0  0  0  0
  -22.4453   15.8781  -23.2356 C   0  0  0  0  0  0  0  0  0  0  0  0
  -21.9373   15.6261  -20.8811 C   0  0  0  0  0  0  0  0  0  0  0  0
  -18.0764   20.9964  -27.2598 C   0  0  0  0  0  0  0  0  0  0  0  0
  -20.5581   15.2173  -24.7848 C   0  0  0  0  0  0  0  0  0  0  0  0
  -19.1315   20.7712  -28.0531 C   0  0  0  0  0  0  0  0  0  0  0  0
  -20.9483   15.9888  -25.8075 C   0  0  0  0  0  0  0  0  0  0  0  0
  -19.1062   19.6450  -29.0269 C   0  0  0  0  0  0  0  0  0  0  0  0
  -20.3787   15.7715  -27.1660 C   0  0  0  0  0  0  0  0  0  0  0  0
  -21.4196   15.7091  -30.3020 C   0  0  0  0  0  0  0  0  0  0  0  0
  -20.6017   18.0357  -30.1642 C   0  0  2  0  0  0  0  0  0  0  0  0
  -20.4979   16.6419  -29.4923 C   0  0  1  0  0  0  0  0  0  0  0  0
  -22.4791   15.7918  -19.4908 C   0  0  0  0  0  0  0  0  0  0  0  0
  -19.1953   23.5314  -24.7707 N   0  0  0  0  0  0  0  0  0  0  0  0
  -20.7323   15.1837  -21.0652 N   0  0  0  0  0  0  0  0  0  0  0  0
  -16.8469   23.6996  -25.0064 N   0  0  0  0  0  0  0  0  0  0  0  0
  -22.7980   15.9736  -21.9019 N   0  0  0  0  0  0  0  0  0  0  0  0
  -20.3730   19.1317  -29.2636 N   0  0  0  0  0  0  0  0  0  0  0  0
  -20.8963   16.6599  -28.0992 N   0  0  0  0  0  0  0  0  0  0  0  0
  -15.6698   22.3352  -26.4419 O   0  0  0  0  0  0  0  0  0  0  0  0
  -23.1910   16.1801  -24.1623 O   0  0  0  0  0  0  0  0  0  0  0  0
  -18.0692   19.2376  -29.5407 O   0  0  0  0  0  0  0  0  0  0  0  0
  -19.5516   14.8974  -27.4048 O   0  0  0  0  0  0  0  0  0  0  0  0
  -25.4577   17.2102  -32.2469 H   0  0  0  0  0  0  0  0  0  0  0  0
  -24.6508   19.5488  -32.1229 H   0  0  0  0  0  0  0  0  0  0  0  0
  -24.0337   15.3427  -31.4295 H   0  0  0  0  0  0  0  0  0  0  0  0
  -22.4104   20.0614  -31.1768 H   0  0  0  0  0  0  0  0  0  0  0  0
  -20.1119   22.0866  -25.9334 H   0  0  0  0  0  0  0  0  0  0  0  0
  -19.3150   14.6942  -22.4894 H   0  0  0  0  0  0  0  0  0  0  0  0
  -17.9817   24.8870  -23.7380 H   0  0  0  0  0  0  0  0  0  0  0  0
  -17.1888   20.3726  -27.3071 H   0  0  0  0  0  0  0  0  0  0  0  0
  -19.8267   14.4260  -24.9191 H   0  0  0  0  0  0  0  0  0  0  0  0
  -20.0186   21.3952  -28.0046 H   0  0  0  0  0  0  0  0  0  0  0  0
  -21.6801   16.7792  -25.6722 H   0  0  0  0  0  0  0  0  0  0  0  0
  -21.9065   14.9560  -29.6669 H   0  0  0  0  0  0  0  0  0  0  0  0
  -20.8719   15.2108  -31.1120 H   0  0  0  0  0  0  0  0  0  0  0  0
  -19.8339   18.1101  -30.9738 H   0  0  0  0  0  0  0  0  0  0  0  0
  -19.4889   16.2893  -29.5289 H   0  0  0  0  0  0  0  0  0  0  0  0
  -22.2529   16.7926  -19.1315 H   0  0  0  0  0  0  0  0  0  0  0  0
  -22.0219   15.0554  -18.8339 H   0  0  0  0  0  0  0  0  0  0  0  0
  -23.5561   15.6417  -19.5020 H   0  0  0  0  0  0  0  0  0  0  0  0
  -16.0051   24.1826  -24.7067 H   0  0  0  0  0  0  0  0  0  0  0  0
  -23.7292   16.3142  -21.6807 H   0  0  0  0  0  0  0  0  0  0  0  0
  -21.1745   19.5155  -28.7665 H   0  0  0  0  0  0  0  0  0  0  0  0
  -21.6046   17.3343  -27.8121 H   0  0  0  0  0  0  0  0  0  0  0  0
  1  2  1  0  0  0  0
  1  3  2  0  0  0  0
  2  4  2  0  0  0  0
  3  5  1  0  0  0  0
  4  6  1  0  0  0  0
  5  6  2  0  0  0  0
  5 21  1  0  0  0  0
  6 22  1  0  0  0  0
  7 10  2  0  0  0  0
  7 25  1  0  0  0  0
  8 11  2  0  0  0  0
  8 26  1  0  0  0  0
  9 25  2  0  0  0  0
  9 27  1  0  0  0  0
 10 12  1  0  0  0  0
 10 15  1  0  0  0  0
 11 13  1  0  0  0  0
 11 16  1  0  0  0  0
 12 27  1  0  0  0  0
 12 31  2  0  0  0  0
 13 28  1  0  0  0  0
 13 32  2  0  0  0  0
 14 24  1  0  0  0  0
 14 26  2  0  0  0  0
 14 28  1  0  0  0  0
 15 17  2  0  0  0  0
 16 18  2  0  0  0  0
 17 19  1  0  0  0  0
 18 20  1  0  0  0  0
 19 29  1  0  0  0  0
 19 33  2  0  0  0  0
 20 30  1  0  0  0  0
 20 34  2  0  0  0  0
 21 23  1  0  0  0  0
 22 23  1  0  0  0  0
 22 29  1  0  0  0  0
 23 30  1  0  0  0  0
  1 35  1  0  0  0  0
  2 36  1  0  0  0  0
  3 37  1  0  0  0  0
  4 38  1  0  0  0  0
  7 39  1  0  0  0  0
  8 40  1  0  0  0  0
  9 41  1  0  0  0  0
 15 42  1  0  0  0  0
 16 43  1  0  0  0  0
 17 44  1  0  0  0  0
 18 45  1  0  0  0  0
 21 46  1  0  0  0  0
 21 47  1  0  0  0  0
 22 48  1  0  0  0  0
 23 49  1  0  0  0  0
 24 50  1  0  0  0  0
 24 51  1  0  0  0  0
 24 52  1  0  0  0  0
 27 53  1  0  0  0  0
 28 54  1  0  0  0  0
 29 55  1  0  0  0  0
 30 56  1  0  0  0  0
M  END
> <FRED Chemgauss4 score>
-7.660976

$$$$
92
  -OEChem-08042116223D

 59 62  0     1  0  0  0  0  0999 V2000
  -18.9829   13.3357  -20.9584 C   0  0  0  0  0  0  0  0  0  0  0  0
  -18.6200   13.4991  -22.2920 C   0  0  0  0  0  0  0  0  0  0  0  0
  -20.0091   14.1084  -20.4140 C   0  0  0  0  0  0  0  0  0  0  0  0
  -19.2818   14.4358  -23.0863 C   0  0  0  0  0  0  0  0  0  0  0  0
  -21.7214   15.8423  -20.6676 C   0  0  0  0  0  0  0  0  0  0  0  0
  -22.3832   16.7791  -21.4619 C   0  0  0  0  0  0  0  0  0  0  0  0
  -20.9941   16.1698  -23.3399 C   0  0  0  0  0  0  0  0  0  0  0  0
  -20.6862   15.0560  -21.1989 C   0  0  0  0  0  0  0  0  0  0  0  0
  -20.3170   15.2222  -22.5550 C   0  0  0  0  0  0  0  0  0  0  0  0
  -22.0203   16.9425  -22.7955 C   0  0  0  0  0  0  0  0  0  0  0  0
  -23.2707   12.9466  -29.3689 C   0  0  0  0  0  0  0  0  0  0  0  0
  -17.2944   21.6476  -26.4210 C   0  0  0  0  0  0  0  0  0  0  0  0
  -21.9085   11.5951  -30.5533 C   0  0  0  0  0  0  0  0  0  0  0  0
  -22.3588   13.9207  -29.2276 C   0  0  0  0  0  0  0  0  0  0  0  0
  -18.6301   21.5884  -26.5095 C   0  0  0  0  0  0  0  0  0  0  0  0
  -21.0162   13.7197  -29.8328 C   0  0  0  0  0  0  0  0  0  0  0  0
  -19.2675   22.0197  -27.7920 C   0  0  0  0  0  0  0  0  0  0  0  0
  -16.9914   22.5006  -28.6682 C   0  0  0  0  0  0  0  0  0  0  0  0
  -22.6502   15.1339  -28.5166 C   0  0  0  0  0  0  0  0  0  0  0  0
  -19.4441   21.1282  -25.4195 C   0  0  0  0  0  0  0  0  0  0  0  0
  -23.0084   15.1551  -27.2264 C   0  0  0  0  0  0  0  0  0  0  0  0
  -20.2560   20.0674  -25.5128 C   0  0  0  0  0  0  0  0  0  0  0  0
  -23.2969   16.4517  -26.5532 C   0  0  0  0  0  0  0  0  0  0  0  0
  -21.0727   19.6473  -24.3406 C   0  0  0  0  0  0  0  0  0  0  0  0
  -23.9802   17.3896  -24.3660 C   0  0  0  0  0  0  0  0  0  0  0  0
  -22.7292   17.9443  -23.6432 C   0  0  2  0  0  0  0  0  0  0  0  0
  -23.0795   11.7584  -30.0316 N   0  0  0  0  0  0  0  0  0  0  0  0
  -16.4969   22.0818  -27.4442 N   0  0  0  0  0  0  0  0  0  0  0  0
  -20.8817   12.5084  -30.4854 N   0  0  0  0  0  0  0  0  0  0  0  0
  -18.3819   22.4440  -28.7756 N   0  0  0  0  0  0  0  0  0  0  0  0
  -23.6509   16.2806  -25.2231 N   0  0  0  0  0  0  0  0  0  0  0  0
  -21.8277   18.5493  -24.6457 N   0  0  0  0  0  0  0  0  0  0  0  0
  -20.1223   14.5566  -29.7531 O   0  0  0  0  0  0  0  0  0  0  0  0
  -20.4856   21.9971  -27.9512 O   0  0  0  0  0  0  0  0  0  0  0  0
  -16.2682   22.8911  -29.5850 O   0  0  0  0  0  0  0  0  0  0  0  0
  -23.2253   17.5296  -27.1346 O   0  0  0  0  0  0  0  0  0  0  0  0
  -21.0426   20.2397  -23.2666 O   0  0  0  0  0  0  0  0  0  0  0  0
  -18.4670   12.6066  -20.3408 H   0  0  0  0  0  0  0  0  0  0  0  0
  -17.8207   12.8976  -22.7148 H   0  0  0  0  0  0  0  0  0  0  0  0
  -20.2760   13.9632  -19.3692 H   0  0  0  0  0  0  0  0  0  0  0  0
  -18.9811   14.5468  -24.1263 H   0  0  0  0  0  0  0  0  0  0  0  0
  -22.0216   15.7316  -19.6274 H   0  0  0  0  0  0  0  0  0  0  0  0
  -23.1813   17.3771  -21.0299 H   0  0  0  0  0  0  0  0  0  0  0  0
  -20.7201   16.3074  -24.3847 H   0  0  0  0  0  0  0  0  0  0  0  0
  -24.2630   13.0577  -28.9404 H   0  0  0  0  0  0  0  0  0  0  0  0
  -16.7560   21.3533  -25.5265 H   0  0  0  0  0  0  0  0  0  0  0  0
  -21.6443   10.6814  -31.1073 H   0  0  0  0  0  0  0  0  0  0  0  0
  -22.5619   16.0486  -29.0950 H   0  0  0  0  0  0  0  0  0  0  0  0
  -19.3620   21.6996  -24.4998 H   0  0  0  0  0  0  0  0  0  0  0  0
  -23.0970   14.2399  -26.6492 H   0  0  0  0  0  0  0  0  0  0  0  0
  -20.3378   19.4972  -26.4330 H   0  0  0  0  0  0  0  0  0  0  0  0
  -24.7246   17.0183  -23.6524 H   0  0  0  0  0  0  0  0  0  0  0  0
  -24.4665   18.1496  -24.9867 H   0  0  0  0  0  0  0  0  0  0  0  0
  -23.0778   18.7843  -23.0126 H   0  0  0  0  0  0  0  0  0  0  0  0
  -15.4918   22.0979  -27.2990 H   0  0  0  0  0  0  0  0  0  0  0  0
  -19.9940   12.2894  -30.9278 H   0  0  0  0  0  0  0  0  0  0  0  0
  -18.7861   22.7422  -29.6589 H   0  0  0  0  0  0  0  0  0  0  0  0
  -23.7134   15.3423  -24.8331 H   0  0  0  0  0  0  0  0  0  0  0  0
  -21.8334   18.1258  -25.5525 H   0  0  0  0  0  0  0  0  0  0  0  0
  1  2  1  0  0  0  0
  1  3  2  0  0  0  0
  2  4  2  0  0  0  0
  3  8  1  0  0  0  0
  4  9  1  0  0  0  0
  5  6  2  0  0  0  0
  5  8  1  0  0  0  0
  6 10  1  0  0  0  0
  7  9  1  0  0  0  0
  7 10  2  0  0  0  0
  8  9  2  0  0  0  0
 10 26  1  0  0  0  0
 11 14  2  0  0  0  0
 11 27  1  0  0  0  0
 12 15  2  0  0  0  0
 12 28  1  0  0  0  0
 13 27  2  0  0  0  0
 13 29  1  0  0  0  0
 14 16  1  0  0  0  0
 14 19  1  0  0  0  0
 15 17  1  0  0  0  0
 15 20  1  0  0  0  0
 16 29  1  0  0  0  0
 16 33  2  0  0  0  0
 17 30  1  0  0  0  0
 17 34  2  0  0  0  0
 18 28  1  0  0  0  0
 18 30  1  0  0  0  0
 18 35  2  0  0  0  0
 19 21  2  0  0  0  0
 20 22  2  0  0  0  0
 21 23  1  0  0  0  0
 22 24  1  0  0  0  0
 23 31  1  0  0  0  0
 23 36  2  0  0  0  0
 24 32  1  0  0  0  0
 24 37  2  0  0  0  0
 25 26  1  0  0  0  0
 25 31  1  0  0  0  0
 26 32  1  0  0  0  0
  1 38  1  0  0  0  0
  2 39  1  0  0  0  0
  3 40  1  0  0  0  0
  4 41  1  0  0  0  0
  5 42  1  0  0  0  0
  6 43  1  0  0  0  0
  7 44  1  0  0  0  0
 11 45  1  0  0  0  0
 12 46  1  0  0  0  0
 13 47  1  0  0  0  0
 19 48  1  0  0  0  0
 20 49  1  0  0  0  0
 21 50  1  0  0  0  0
 22 51  1  0  0  0  0
 25 52  1  0  0  0  0
 25 53  1  0  0  0  0
 26 54  1  0  0  0  0
 28 55  1  0  0  0  0
 29 56  1  0  0  0  0
 30 57  1  0  0  0  0
 31 58  1  0  0  0  0
 32 59  1  0  0  0  0
M  END
> <FRED Chemgauss4 score>
3.263574

$$$$
81
  -OEChem-08042116223D

 53 56  0     1  0  0  0  0  0999 V2000
  -23.1390   15.4953  -31.2142 C   0  0  0  0  0  0  0  0  0  0  0  0
  -22.7451   16.8415  -31.2437 C   0  0  0  0  0  0  0  0  0  0  0  0
  -22.8616   16.2814  -20.7859 C   0  0  0  0  0  0  0  0  0  0  0  0
  -22.1443   16.0206  -21.9481 C   0  0  0  0  0  0  0  0  0  0  0  0
  -22.4244   14.5624  -30.4612 C   0  0  0  0  0  0  0  0  0  0  0  0
  -21.6320   17.2742  -30.5190 C   0  0  0  0  0  0  0  0  0  0  0  0
  -22.8537   15.3190  -19.7892 C   0  0  0  0  0  0  0  0  0  0  0  0
  -21.5059   13.9253  -21.0217 C   0  0  0  0  0  0  0  0  0  0  0  0
  -21.4508   14.8223  -22.0763 C   0  0  0  0  0  0  0  0  0  0  0  0
  -21.3296   15.0028  -29.7354 C   0  0  0  0  0  0  0  0  0  0  0  0
  -20.9358   16.3474  -29.7578 C   0  0  0  0  0  0  0  0  0  0  0  0
  -19.2748   22.3378  -26.0211 C   0  0  0  0  0  0  0  0  0  0  0  0
  -18.5015   24.1483  -24.9215 C   0  0  0  0  0  0  0  0  0  0  0  0
  -18.0553   21.8487  -26.2931 C   0  0  0  0  0  0  0  0  0  0  0  0
  -16.8706   22.6090  -25.8161 C   0  0  0  0  0  0  0  0  0  0  0  0
  -20.6818   14.5160  -23.2954 C   0  0  0  0  0  0  0  0  0  0  0  0
  -17.8754   20.6247  -27.0225 C   0  0  0  0  0  0  0  0  0  0  0  0
  -20.8687   15.1111  -24.4827 C   0  0  0  0  0  0  0  0  0  0  0  0
  -18.7570   19.6174  -26.9858 C   0  0  0  0  0  0  0  0  0  0  0  0
  -20.0228   14.7267  -25.6485 C   0  0  0  0  0  0  0  0  0  0  0  0
  -18.5044   18.3756  -27.7679 C   0  0  0  0  0  0  0  0  0  0  0  0
  -20.3986   14.1803  -28.8991 C   0  0  0  0  0  0  0  0  0  0  0  0
  -19.6944   16.5475  -28.9347 C   0  0  2  0  0  0  0  0  0  0  0  0
  -19.6851   15.2630  -28.0660 C   0  0  1  0  0  0  0  0  0  0  0  0
  -22.1920   14.1434  -19.8774 N   0  0  0  0  0  0  0  0  0  0  0  0
  -19.5392   23.4960  -25.3309 N   0  0  0  0  0  0  0  0  0  0  0  0
  -17.1969   23.7636  -25.1294 N   0  0  0  0  0  0  0  0  0  0  0  0
  -19.6827   17.7642  -28.1704 N   0  0  0  0  0  0  0  0  0  0  0  0
  -20.3536   15.4421  -26.7929 N   0  0  0  0  0  0  0  0  0  0  0  0
  -15.7192   22.2364  -26.0194 O   0  0  0  0  0  0  0  0  0  0  0  0
  -19.1443   13.8739  -25.5734 O   0  0  0  0  0  0  0  0  0  0  0  0
  -17.3741   17.9638  -28.0089 O   0  0  0  0  0  0  0  0  0  0  0  0
  -24.0108   15.1784  -31.7798 H   0  0  0  0  0  0  0  0  0  0  0  0
  -23.3149   17.5550  -31.8327 H   0  0  0  0  0  0  0  0  0  0  0  0
  -23.4094   17.2087  -20.6640 H   0  0  0  0  0  0  0  0  0  0  0  0
  -22.1350   16.7600  -22.7450 H   0  0  0  0  0  0  0  0  0  0  0  0
  -22.7233   13.5196  -30.4478 H   0  0  0  0  0  0  0  0  0  0  0  0
  -21.3245   18.3152  -30.5530 H   0  0  0  0  0  0  0  0  0  0  0  0
  -23.3985   15.4745  -18.8639 H   0  0  0  0  0  0  0  0  0  0  0  0
  -20.9861   12.9721  -21.0591 H   0  0  0  0  0  0  0  0  0  0  0  0
  -20.1643   21.8097  -26.3534 H   0  0  0  0  0  0  0  0  0  0  0  0
  -18.5948   25.0893  -24.3583 H   0  0  0  0  0  0  0  0  0  0  0  0
  -19.9062   13.7630  -23.1758 H   0  0  0  0  0  0  0  0  0  0  0  0
  -16.9679   20.5619  -27.6156 H   0  0  0  0  0  0  0  0  0  0  0  0
  -21.6174   15.8823  -24.6292 H   0  0  0  0  0  0  0  0  0  0  0  0
  -19.6637   19.6810  -26.3921 H   0  0  0  0  0  0  0  0  0  0  0  0
  -20.9797   13.4911  -28.2706 H   0  0  0  0  0  0  0  0  0  0  0  0
  -19.6858   13.6114  -29.5095 H   0  0  0  0  0  0  0  0  0  0  0  0
  -18.7832   16.5580  -29.5828 H   0  0  0  0  0  0  0  0  0  0  0  0
  -18.6790   14.9667  -27.8568 H   0  0  0  0  0  0  0  0  0  0  0  0
  -16.4458   24.3443  -24.7683 H   0  0  0  0  0  0  0  0  0  0  0  0
  -20.5783   18.1639  -27.8968 H   0  0  0  0  0  0  0  0  0  0  0  0
  -21.1056   16.1285  -26.7338 H   0  0  0  0  0  0  0  0  0  0  0  0
  1  2  1  0  0  0  0
  1  5  2  0  0  0  0
  2  6  2  0  0  0  0
  3  4  2  0  0  0  0
  3  7  1  0  0  0  0
  4  9  1  0  0  0  0
  5 10  1  0  0  0  0
  6 11  1  0  0  0  0
  7 25  2  0  0  0  0
  8  9  2  0  0  0  0
  8 25  1  0  0  0  0
  9 16  1  0  0  0  0
 10 11  2  0  0  0  0
 10 22  1  0  0  0  0
 11 23  1  0  0  0  0
 12 14  2  0  0  0  0
 12 26  1  0  0  0  0
 13 26  2  0  0  0  0
 13 27  1  0  0  0  0
 14 15  1  0  0  0  0
 14 17  1  0  0  0  0
 15 27  1  0  0  0  0
 15 30  2  0  0  0  0
 16 18  2  0  0  0  0
 17 19  2  0  0  0  0
 18 20  1  0  0  0  0
 19 21  1  0  0  0  0
 20 29  1  0  0  0  0
 20 31  2  0  0  0  0
 21 28  1  0  0  0  0
 21 32  2  0  0  0  0
 22 24  1  0  0  0  0
 23 24  1  0  0  0  0
 23 28  1  0  0  0  0
 24 29  1  0  0  0  0
  1 33  1  0  0  0  0
  2 34  1  0  0  0  0
  3 35  1  0  0  0  0
  4 36  1  0  0  0  0
  5 37  1  0  0  0  0
  6 38  1  0  0  0  0
  7 39  1  0  0  0  0
  8 40  1  0  0  0  0
 12 41  1  0  0  0  0
 13 42  1  0  0  0  0
 16 43  1  0  0  0  0
 17 44  1  0  0  0  0
 18 45  1  0  0  0  0
 19 46  1  0  0  0  0
 22 47  1  0  0  0  0
 22 48  1  0  0  0  0
 23 49  1  0  0  0  0
 24 50  1  0  0  0  0
 27 51  1  0  0  0  0
 28 52  1  0  0  0  0
 29 53  1  0  0  0  0
M  END
> <FRED Chemgauss4 score>
-9.143490

$$$$
78
  -OEChem-08042116223D

 58 61  0     1  0  0  0  0  0999 V2000
  -19.1837   13.0194  -20.4231 C   0  0  0  0  0  0  0  0  0  0  0  0
  -18.3155   12.9093  -21.5052 C   0  0  0  0  0  0  0  0  0  0  0  0
  -20.3515   13.7738  -20.5384 C   0  0  0  0  0  0  0  0  0  0  0  0
  -18.6119   13.5532  -22.7068 C   0  0  0  0  0  0  0  0  0  0  0  0
  -21.8368   15.1924  -21.8742 C   0  0  0  0  0  0  0  0  0  0  0  0
  -22.1332   15.8364  -23.0758 C   0  0  0  0  0  0  0  0  0  0  0  0
  -20.0971   14.9718  -24.0427 C   0  0  0  0  0  0  0  0  0  0  0  0
  -20.6658   14.4288  -21.7403 C   0  0  0  0  0  0  0  0  0  0  0  0
  -19.7829   14.3169  -22.8408 C   0  0  0  0  0  0  0  0  0  0  0  0
  -21.2650   15.7263  -24.1579 C   0  0  0  0  0  0  0  0  0  0  0  0
  -23.7183   18.4317  -32.4631 C   0  0  0  0  0  0  0  0  0  0  0  0
  -17.0366   20.9938  -26.2078 C   0  0  0  0  0  0  0  0  0  0  0  0
  -25.0125   20.1064  -33.2412 C   0  0  0  0  0  0  0  0  0  0  0  0
  -15.9490   22.9689  -26.2456 C   0  0  0  0  0  0  0  0  0  0  0  0
  -23.3619   19.0823  -31.3450 C   0  0  0  0  0  0  0  0  0  0  0  0
  -18.0379   21.4377  -25.4327 C   0  0  0  0  0  0  0  0  0  0  0  0
  -23.9015   20.4497  -31.1253 C   0  0  0  0  0  0  0  0  0  0  0  0
  -18.0071   22.8556  -24.9881 C   0  0  0  0  0  0  0  0  0  0  0  0
  -22.4854   18.4928  -30.3721 C   0  0  0  0  0  0  0  0  0  0  0  0
  -19.1213   20.5843  -25.0322 C   0  0  0  0  0  0  0  0  0  0  0  0
  -22.7706   17.3534  -29.7289 C   0  0  0  0  0  0  0  0  0  0  0  0
  -19.5608   19.5639  -25.7797 C   0  0  0  0  0  0  0  0  0  0  0  0
  -21.8139   16.8002  -28.7309 C   0  0  0  0  0  0  0  0  0  0  0  0
  -20.6908   18.7205  -25.3011 C   0  0  0  0  0  0  0  0  0  0  0  0
  -21.7433   15.4609  -26.6496 C   0  0  0  0  0  0  0  0  0  0  0  0
  -21.5836   16.4154  -25.4419 C   0  0  2  0  0  0  0  0  0  0  0  0
  -24.5499   18.9167  -33.4433 N   0  0  0  0  0  0  0  0  0  0  0  0
  -15.9649   21.7379  -26.6385 N   0  0  0  0  0  0  0  0  0  0  0  0
  -24.7305   20.8849  -32.1424 N   0  0  0  0  0  0  0  0  0  0  0  0
  -16.9076   23.5543  -25.4509 N   0  0  0  0  0  0  0  0  0  0  0  0
  -22.4584   16.0868  -27.7311 N   0  0  0  0  0  0  0  0  0  0  0  0
  -20.5765   17.4438  -25.7762 N   0  0  0  0  0  0  0  0  0  0  0  0
  -23.6290   21.1171  -30.1322 O   0  0  0  0  0  0  0  0  0  0  0  0
  -18.8800   23.3460  -24.2786 O   0  0  0  0  0  0  0  0  0  0  0  0
  -20.6020   16.9752  -28.8081 O   0  0  0  0  0  0  0  0  0  0  0  0
  -21.5838   19.1568  -24.5818 O   0  0  0  0  0  0  0  0  0  0  0  0
  -18.9520   12.5180  -19.4881 H   0  0  0  0  0  0  0  0  0  0  0  0
  -17.4064   12.3221  -21.4144 H   0  0  0  0  0  0  0  0  0  0  0  0
  -21.0156   13.8455  -19.6793 H   0  0  0  0  0  0  0  0  0  0  0  0
  -17.9185   13.4536  -23.5396 H   0  0  0  0  0  0  0  0  0  0  0  0
  -22.5298   15.2924  -21.0412 H   0  0  0  0  0  0  0  0  0  0  0  0
  -23.0448   16.4224  -23.1571 H   0  0  0  0  0  0  0  0  0  0  0  0
  -19.4266   14.8936  -24.8970 H   0  0  0  0  0  0  0  0  0  0  0  0
  -23.3440   17.4305  -32.6581 H   0  0  0  0  0  0  0  0  0  0  0  0
  -17.0250   19.9634  -26.5524 H   0  0  0  0  0  0  0  0  0  0  0  0
  -25.6878   20.5943  -33.9605 H   0  0  0  0  0  0  0  0  0  0  0  0
  -15.1384   23.6567  -26.5307 H   0  0  0  0  0  0  0  0  0  0  0  0
  -21.5623   19.0331  -30.1849 H   0  0  0  0  0  0  0  0  0  0  0  0
  -19.5714   20.8181  -24.0720 H   0  0  0  0  0  0  0  0  0  0  0  0
  -23.6940   16.8142  -29.9165 H   0  0  0  0  0  0  0  0  0  0  0  0
  -19.1104   19.3314  -26.7398 H   0  0  0  0  0  0  0  0  0  0  0  0
  -20.7706   15.1603  -27.0553 H   0  0  0  0  0  0  0  0  0  0  0  0
  -22.2872   14.5485  -26.3827 H   0  0  0  0  0  0  0  0  0  0  0  0
  -22.5421   16.9599  -25.3434 H   0  0  0  0  0  0  0  0  0  0  0  0
  -25.1428   21.8106  -32.0723 H   0  0  0  0  0  0  0  0  0  0  0  0
  -16.8079   24.5318  -25.1933 H   0  0  0  0  0  0  0  0  0  0  0  0
  -23.4742   16.0198  -27.7323 H   0  0  0  0  0  0  0  0  0  0  0  0
  -19.8389   17.1527  -26.3869 H   0  0  0  0  0  0  0  0  0  0  0  0
  1  2  1  0  0  0  0
  1  3  2  0  0  0  0
  2  4  2  0  0  0  0
  3  8  1  0  0  0  0
  4  9  1  0  0  0  0
  5  6  2  0  0  0  0
  5  8  1  0  0  0  0
  6 10  1  0  0  0  0
  7  9  1  0  0  0  0
  7 10  2  0  0  0  0
  8  9  2  0  0  0  0
 10 26  1  0  0  0  0
 11 15  2  0  0  0  0
 11 27  1  0  0  0  0
 12 16  2  0  0  0  0
 12 28  1  0  0  0  0
 13 27  2  0  0  0  0
 13 29  1  0  0  0  0
 14 28  2  0  0  0  0
 14 30  1  0  0  0  0
 15 17  1  0  0  0  0
 15 19  1  0  0  0  0
 16 18  1  0  0  0  0
 16 20  1  0  0  0  0
 17 29  1  0  0  0  0
 17 33  2  0  0  0  0
 18 30  1  0  0  0  0
 18 34  2  0  0  0  0
 19 21  2  0  0  0  0
 20 22  2  0  0  0  0
 21 23  1  0  0  0  0
 22 24  1  0  0  0  0
 23 31  1  0  0  0  0
 23 35  2  0  0  0  0
 24 32  1  0  0  0  0
 24 36  2  0  0  0  0
 25 26  1  0  0  0  0
 25 31  1  0  0  0  0
 26 32  1  0  0  0  0
  1 37  1  0  0  0  0
  2 38  1  0  0  0  0
  3 39  1  0  0  0  0
  4 40  1  0  0  0  0
  5 41  1  0  0  0  0
  6 42  1  0  0  0  0
  7 43  1  0  0  0  0
 11 44  1  0  0  0  0
 12 45  1  0  0  0  0
 13 46  1  0  0  0  0
 14 47  1  0  0  0  0
 19 48  1  0  0  0  0
 20 49  1  0  0  0  0
 21 50  1  0  0  0  0
 22 51  1  0  0  0  0
 25 52  1  0  0  0  0
 25 53  1  0  0  0  0
 26 54  1  0  0  0  0
 29 55  1  0  0  0  0
 30 56  1  0  0  0  0
 31 57  1  0  0  0  0
 32 58  1  0  0  0  0
M  END
> <FRED Chemgauss4 score>
-1.797165

$$$$
60
  -OEChem-08042116223D

 59 62  0     1  0  0  0  0  0999 V2000
  -23.7707   20.6010  -32.8819 C   0  0  0  0  0  0  0  0  0  0  0  0
  -24.3711   19.4529  -32.3434 C   0  0  0  0  0  0  0  0  0  0  0  0
  -22.5131   21.0176  -32.4426 C   0  0  0  0  0  0  0  0  0  0  0  0
  -23.7229   18.7047  -31.3576 C   0  0  0  0  0  0  0  0  0  0  0  0
  -21.8718   20.2624  -31.4743 C   0  0  0  0  0  0  0  0  0  0  0  0
  -22.4680   19.1141  -30.9339 C   0  0  0  0  0  0  0  0  0  0  0  0
  -18.4458   23.3006  -24.5319 C   0  0  0  0  0  0  0  0  0  0  0  0
  -17.5253   23.1582  -25.4846 C   0  0  0  0  0  0  0  0  0  0  0  0
  -20.5375   13.8934  -23.9721 C   0  0  0  0  0  0  0  0  0  0  0  0
  -21.2828   15.0078  -24.0064 C   0  0  0  0  0  0  0  0  0  0  0  0
  -19.4767   22.2691  -24.3107 C   0  0  0  0  0  0  0  0  0  0  0  0
  -17.4958   21.9649  -26.3577 C   0  0  0  0  0  0  0  0  0  0  0  0
  -21.4493   15.7782  -22.7481 C   0  0  0  0  0  0  0  0  0  0  0  0
  -20.0497   14.0618  -21.7681 C   0  0  0  0  0  0  0  0  0  0  0  0
  -21.9118   15.4622  -25.2148 C   0  0  0  0  0  0  0  0  0  0  0  0
  -21.2253   15.7767  -26.3207 C   0  0  0  0  0  0  0  0  0  0  0  0
  -21.9446   16.2425  -27.5385 C   0  0  0  0  0  0  0  0  0  0  0  0
  -19.6220   19.9241  -27.9434 C   0  0  0  0  0  0  0  0  0  0  0  0
  -20.5456   20.5348  -30.8332 C   0  0  0  0  0  0  0  0  0  0  0  0
  -21.5887   18.5136  -29.8687 C   0  0  2  0  0  0  0  0  0  0  0  0
  -20.2276   19.1531  -30.2347 C   0  0  2  0  0  0  0  0  0  0  0  0
  -19.3961   13.5968  -20.4990 C   0  0  0  0  0  0  0  0  0  0  0  0
  -18.4965   19.8273  -26.9453 C   0  0  0  0  0  0  0  0  0  0  0  0
  -21.5361   16.9921  -29.8626 C   0  0  0  0  0  0  0  0  0  0  0  0
  -19.9017   13.3869  -22.8655 N   0  0  0  0  0  0  0  0  0  0  0  0
  -20.7887   15.2226  -21.6678 N   0  0  0  0  0  0  0  0  0  0  0  0
  -19.4269   21.1740  -25.1345 N   0  0  0  0  0  0  0  0  0  0  0  0
  -18.4696   21.0393  -26.1133 N   0  0  0  0  0  0  0  0  0  0  0  0
  -21.0796   16.5260  -28.5950 N   0  0  0  0  0  0  0  0  0  0  0  0
  -19.3306   19.2311  -29.1146 N   0  0  0  0  0  0  0  0  0  0  0  0
  -20.3169   22.4204  -23.4264 O   0  0  0  0  0  0  0  0  0  0  0  0
  -16.6244   21.8811  -27.2218 O   0  0  0  0  0  0  0  0  0  0  0  0
  -22.1128   16.8087  -22.6864 O   0  0  0  0  0  0  0  0  0  0  0  0
  -23.1651   16.3599  -27.5819 O   0  0  0  0  0  0  0  0  0  0  0  0
  -20.6625   20.5410  -27.7309 O   0  0  0  0  0  0  0  0  0  0  0  0
  -24.2933   21.1734  -33.6433 H   0  0  0  0  0  0  0  0  0  0  0  0
  -25.3541   19.1478  -32.6921 H   0  0  0  0  0  0  0  0  0  0  0  0
  -22.0551   21.9119  -32.8514 H   0  0  0  0  0  0  0  0  0  0  0  0
  -24.2037   17.8286  -30.9359 H   0  0  0  0  0  0  0  0  0  0  0  0
  -18.4609   24.1781  -23.8956 H   0  0  0  0  0  0  0  0  0  0  0  0
  -16.7689   23.9184  -25.6449 H   0  0  0  0  0  0  0  0  0  0  0  0
  -20.3925   13.3029  -24.8726 H   0  0  0  0  0  0  0  0  0  0  0  0
  -22.9945   15.5373  -25.1797 H   0  0  0  0  0  0  0  0  0  0  0  0
  -20.1428   15.7017  -26.3546 H   0  0  0  0  0  0  0  0  0  0  0  0
  -19.7873   20.8400  -31.5603 H   0  0  0  0  0  0  0  0  0  0  0  0
  -20.6608   21.3044  -30.0619 H   0  0  0  0  0  0  0  0  0  0  0  0
  -21.9370   18.8799  -28.8935 H   0  0  0  0  0  0  0  0  0  0  0  0
  -19.7200   18.5439  -30.9970 H   0  0  0  0  0  0  0  0  0  0  0  0
  -18.4051   14.0369  -20.4205 H   0  0  0  0  0  0  0  0  0  0  0  0
  -19.3150   12.5124  -20.5098 H   0  0  0  0  0  0  0  0  0  0  0  0
  -20.0005   13.9020  -19.6481 H   0  0  0  0  0  0  0  0  0  0  0  0
  -18.6467   18.9537  -26.3042 H   0  0  0  0  0  0  0  0  0  0  0  0
  -17.5420   19.7312  -27.4708 H   0  0  0  0  0  0  0  0  0  0  0  0
  -22.5446   16.6290  -30.0612 H   0  0  0  0  0  0  0  0  0  0  0  0
  -20.8489   16.6853  -30.6511 H   0  0  0  0  0  0  0  0  0  0  0  0
  -20.8592   15.6983  -20.7729 H   0  0  0  0  0  0  0  0  0  0  0  0
  -20.1055   20.4248  -25.0395 H   0  0  0  0  0  0  0  0  0  0  0  0
  -20.0713   16.4231  -28.4444 H   0  0  0  0  0  0  0  0  0  0  0  0
  -18.4327   18.7533  -29.1815 H   0  0  0  0  0  0  0  0  0  0  0  0
  1  2  1  0  0  0  0
  1  3  2  0  0  0  0
  2  4  2  0  0  0  0
  3  5  1  0  0  0  0
  4  6  1  0  0  0  0
  5  6  2  0  0  0  0
  5 19  1  0  0  0  0
  6 20  1  0  0  0  0
  7  8  2  0  0  0  0
  7 11  1  0  0  0  0
  8 12  1  0  0  0  0
  9 10  2  0  0  0  0
  9 25  1  0  0  0  0
 10 13  1  0  0  0  0
 10 15  1  0  0  0  0
 11 27  1  0  0  0  0
 11 31  2  0  0  0  0
 12 28  1  0  0  0  0
 12 32  2  0  0  0  0
 13 26  1  0  0  0  0
 13 33  2  0  0  0  0
 14 22  1  0  0  0  0
 14 25  2  0  0  0  0
 14 26  1  0  0  0  0
 15 16  2  0  0  0  0
 16 17  1  0  0  0  0
 17 29  1  0  0  0  0
 17 34  2  0  0  0  0
 18 23  1  0  0  0  0
 18 30  1  0  0  0  0
 18 35  2  0  0  0  0
 19 21  1  0  0  0  0
 20 21  1  0  0  0  0
 20 24  1  0  0  0  0
 21 30  1  0  0  0  0
 23 28  1  0  0  0  0
 24 29  1  0  0  0  0
 27 28  1  0  0  0  0
  1 36  1  0  0  0  0
  2 37  1  0  0  0  0
  3 38  1  0  0  0  0
  4 39  1  0  0  0  0
  7 40  1  0  0  0  0
  8 41  1  0  0  0  0
  9 42  1  0  0  0  0
 15 43  1  0  0  0  0
 16 44  1  0  0  0  0
 19 45  1  0  0  0  0
 19 46  1  0  0  0  0
 20 47  1  0  0  0  0
 21 48  1  0  0  0  0
 22 49  1  0  0  0  0
 22 50  1  0  0  0  0
 22 51  1  0  0  0  0
 23 52  1  0  0  0  0
 23 53  1  0  0  0  0
 24 54  1  0  0  0  0
 24 55  1  0  0  0  0
 26 56  1  0  0  0  0
 27 57  1  0  0  0  0
 29 58  1  0  0  0  0
 30 59  1  0  0  0  0
M  END
> <FRED Chemgauss4 score>
-7.472852

$$$$
94
  -OEChem-08042116223D

 53 56  0     1  0  0  0  0  0999 V2000
  -23.6078   15.1032  -31.1069 C   0  0  0  0  0  0  0  0  0  0  0  0
  -23.1863   16.4370  -31.2150 C   0  0  0  0  0  0  0  0  0  0  0  0
  -22.9017   14.1973  -30.3139 C   0  0  0  0  0  0  0  0  0  0  0  0
  -22.0538   16.8843  -30.5302 C   0  0  0  0  0  0  0  0  0  0  0  0
  -21.7873   14.6527  -29.6282 C   0  0  0  0  0  0  0  0  0  0  0  0
  -21.3659   15.9852  -29.7292 C   0  0  0  0  0  0  0  0  0  0  0  0
  -19.2182   21.5830  -25.2706 C   0  0  0  0  0  0  0  0  0  0  0  0
  -21.5326   14.6884  -20.9970 C   0  0  0  0  0  0  0  0  0  0  0  0
  -18.5095   23.6459  -24.6983 C   0  0  0  0  0  0  0  0  0  0  0  0
  -22.7718   16.0687  -19.7147 C   0  0  0  0  0  0  0  0  0  0  0  0
  -18.1636   21.3221  -26.0582 C   0  0  0  0  0  0  0  0  0  0  0  0
  -21.2951   15.6075  -21.9453 C   0  0  0  0  0  0  0  0  0  0  0  0
  -17.1158   22.3669  -26.1988 C   0  0  0  0  0  0  0  0  0  0  0  0
  -21.8740   16.9650  -21.7691 C   0  0  0  0  0  0  0  0  0  0  0  0
  -18.0290   20.0736  -26.7549 C   0  0  0  0  0  0  0  0  0  0  0  0
  -20.5045   15.3107  -23.1069 C   0  0  0  0  0  0  0  0  0  0  0  0
  -19.0787   19.3527  -27.1695 C   0  0  0  0  0  0  0  0  0  0  0  0
  -20.9795   15.4033  -24.3556 C   0  0  0  0  0  0  0  0  0  0  0  0
  -18.8636   18.0652  -27.8861 C   0  0  0  0  0  0  0  0  0  0  0  0
  -20.1018   15.0786  -25.5139 C   0  0  0  0  0  0  0  0  0  0  0  0
  -20.8615   13.8567  -28.7610 C   0  0  0  0  0  0  0  0  0  0  0  0
  -20.1086   16.2027  -28.9352 C   0  0  2  0  0  0  0  0  0  0  0  0
  -20.1133   14.9673  -27.9980 C   0  0  1  0  0  0  0  0  0  0  0  0
  -19.4270   22.7452  -24.5681 N   0  0  0  0  0  0  0  0  0  0  0  0
  -22.2735   14.8848  -19.8568 N   0  0  0  0  0  0  0  0  0  0  0  0
  -17.3788   23.5124  -25.4709 N   0  0  0  0  0  0  0  0  0  0  0  0
  -22.6086   17.1040  -20.6062 N   0  0  0  0  0  0  0  0  0  0  0  0
  -20.0602   17.4585  -28.2386 N   0  0  0  0  0  0  0  0  0  0  0  0
  -20.7591   15.2295  -26.7275 N   0  0  0  0  0  0  0  0  0  0  0  0
  -16.1185   22.2143  -26.8972 O   0  0  0  0  0  0  0  0  0  0  0  0
  -21.7083   17.8664  -22.5851 O   0  0  0  0  0  0  0  0  0  0  0  0
  -17.7459   17.6165  -28.1196 O   0  0  0  0  0  0  0  0  0  0  0  0
  -18.9368   14.7177  -25.3807 O   0  0  0  0  0  0  0  0  0  0  0  0
  -24.4942   14.7751  -31.6424 H   0  0  0  0  0  0  0  0  0  0  0  0
  -23.7498   17.1298  -31.8342 H   0  0  0  0  0  0  0  0  0  0  0  0
  -23.2220   13.1635  -30.2396 H   0  0  0  0  0  0  0  0  0  0  0  0
  -21.7252   17.9149  -30.6251 H   0  0  0  0  0  0  0  0  0  0  0  0
  -20.0040   20.8436  -25.1433 H   0  0  0  0  0  0  0  0  0  0  0  0
  -21.1259   13.6852  -21.0912 H   0  0  0  0  0  0  0  0  0  0  0  0
  -18.5730   24.6154  -24.1811 H   0  0  0  0  0  0  0  0  0  0  0  0
  -23.3820   16.3383  -18.8393 H   0  0  0  0  0  0  0  0  0  0  0  0
  -17.0098   19.7420  -26.9293 H   0  0  0  0  0  0  0  0  0  0  0  0
  -19.4821   15.0017  -22.9113 H   0  0  0  0  0  0  0  0  0  0  0  0
  -20.0973   19.6849  -26.9941 H   0  0  0  0  0  0  0  0  0  0  0  0
  -22.0020   15.7119  -24.5501 H   0  0  0  0  0  0  0  0  0  0  0  0
  -21.4475   13.2154  -28.0881 H   0  0  0  0  0  0  0  0  0  0  0  0
  -20.1698   13.2403  -29.3492 H   0  0  0  0  0  0  0  0  0  0  0  0
  -19.2071   16.1583  -29.5953 H   0  0  0  0  0  0  0  0  0  0  0  0
  -19.1106   14.6611  -27.7867 H   0  0  0  0  0  0  0  0  0  0  0  0
  -16.7129   24.2783  -25.5106 H   0  0  0  0  0  0  0  0  0  0  0  0
  -23.0405   18.0015  -20.4071 H   0  0  0  0  0  0  0  0  0  0  0  0
  -20.9432   17.8918  -27.9750 H   0  0  0  0  0  0  0  0  0  0  0  0
  -21.7402   15.5058  -26.7369 H   0  0  0  0  0  0  0  0  0  0  0  0
  1  2  1  0  0  0  0
  1  3  2  0  0  0  0
  2  4  2  0  0  0  0
  3  5  1  0  0  0  0
  4  6  1  0  0  0  0
  5  6  2  0  0  0  0
  5 21  1  0  0  0  0
  6 22  1  0  0  0  0
  7 11  2  0  0  0  0
  7 24  1  0  0  0  0
  8 12  2  0  0  0  0
  8 25  1  0  0  0  0
  9 24  2  0  0  0  0
  9 26  1  0  0  0  0
 10 25  2  0  0  0  0
 10 27  1  0  0  0  0
 11 13  1  0  0  0  0
 11 15  1  0  0  0  0
 12 14  1  0  0  0  0
 12 16  1  0  0  0  0
 13 26  1  0  0  0  0
 13 30  2  0  0  0  0
 14 27  1  0  0  0  0
 14 31  2  0  0  0  0
 15 17  2  0  0  0  0
 16 18  2  0  0  0  0
 17 19  1  0  0  0  0
 18 20  1  0  0  0  0
 19 28  1  0  0  0  0
 19 32  2  0  0  0  0
 20 29  1  0  0  0  0
 20 33  2  0  0  0  0
 21 23  1  0  0  0  0
 22 23  1  0  0  0  0
 22 28  1  0  0  0  0
 23 29  1  0  0  0  0
  1 34  1  0  0  0  0
  2 35  1  0  0  0  0
  3 36  1  0  0  0  0
  4 37  1  0  0  0  0
  7 38  1  0  0  0  0
  8 39  1  0  0  0  0
  9 40  1  0  0  0  0
 10 41  1  0  0  0  0
 15 42  1  0  0  0  0
 16 43  1  0  0  0  0
 17 44  1  0  0  0  0
 18 45  1  0  0  0  0
 21 46  1  0  0  0  0
 21 47  1  0  0  0  0
 22 48  1  0  0  0  0
 23 49  1  0  0  0  0
 26 50  1  0  0  0  0
 27 51  1  0  0  0  0
 28 52  1  0  0  0  0
 29 53  1  0  0  0  0
M  END
> <FRED Chemgauss4 score>
-9.303306

$$$$
85
  -OEChem-08042116223D

 59 62  0     1  0  0  0  0  0999 V2000
  -17.9152   23.7969  -24.5558 C   0  0  0  0  0  0  0  0  0  0  0  0
  -16.9187   23.4267  -25.4714 C   0  0  0  0  0  0  0  0  0  0  0  0
  -19.1836   23.2172  -24.6132 C   0  0  0  0  0  0  0  0  0  0  0  0
  -17.1758   22.4715  -26.4580 C   0  0  0  0  0  0  0  0  0  0  0  0
  -19.4259   22.2614  -25.5863 C   0  0  0  0  0  0  0  0  0  0  0  0
  -18.4326   21.8881  -26.5030 C   0  0  0  0  0  0  0  0  0  0  0  0
  -24.3510   16.5680  -30.3178 C   0  0  0  0  0  0  0  0  0  0  0  0
  -20.3894   13.5916  -29.4942 C   0  0  0  0  0  0  0  0  0  0  0  0
  -25.1265   16.7272  -32.4293 C   0  0  0  0  0  0  0  0  0  0  0  0
  -23.4429   17.5450  -30.4632 C   0  0  0  0  0  0  0  0  0  0  0  0
  -20.8748   14.3712  -28.5170 C   0  0  0  0  0  0  0  0  0  0  0  0
  -23.3481   18.2260  -31.7810 C   0  0  0  0  0  0  0  0  0  0  0  0
  -22.2896   14.1827  -28.1080 C   0  0  0  0  0  0  0  0  0  0  0  0
  -22.3226   12.4562  -29.8062 C   0  0  0  0  0  0  0  0  0  0  0  0
  -22.5765   17.9400  -29.3882 C   0  0  0  0  0  0  0  0  0  0  0  0
  -20.0673   15.3671  -27.8701 C   0  0  0  0  0  0  0  0  0  0  0  0
  -23.0315   18.4101  -28.2198 C   0  0  0  0  0  0  0  0  0  0  0  0
  -19.5004   16.3865  -28.5279 C   0  0  0  0  0  0  0  0  0  0  0  0
  -22.0737   18.8018  -27.1490 C   0  0  0  0  0  0  0  0  0  0  0  0
  -18.6740   17.3826  -27.7914 C   0  0  0  0  0  0  0  0  0  0  0  0
  -20.7094   21.5379  -25.8566 C   0  0  0  0  0  0  0  0  0  0  0  0
  -18.9697   20.8767  -27.4812 C   0  0  2  0  0  0  0  0  0  0  0  0
  -20.1996   20.3555  -26.6996 C   0  0  2  0  0  0  0  0  0  0  0  0
  -23.1760   11.4176  -30.4747 C   0  0  0  0  0  0  0  0  0  0  0  0
  -17.9988   19.7640  -27.8515 C   0  0  0  0  0  0  0  0  0  0  0  0
  -25.2184   16.1278  -31.2882 N   0  0  0  0  0  0  0  0  0  0  0  0
  -21.0871   12.6178  -30.1653 N   0  0  0  0  0  0  0  0  0  0  0  0
  -24.2432   17.7422  -32.7169 N   0  0  0  0  0  0  0  0  0  0  0  0
  -22.9427   13.1908  -28.8165 N   0  0  0  0  0  0  0  0  0  0  0  0
  -21.2159   19.8131  -27.5590 N   0  0  0  0  0  0  0  0  0  0  0  0
  -18.7147   18.6481  -28.3759 N   0  0  0  0  0  0  0  0  0  0  0  0
  -22.5476   19.1291  -32.0032 O   0  0  0  0  0  0  0  0  0  0  0  0
  -22.8171   14.8503  -27.2238 O   0  0  0  0  0  0  0  0  0  0  0  0
  -22.0645   18.2713  -26.0429 O   0  0  0  0  0  0  0  0  0  0  0  0
  -18.0329   17.0962  -26.7853 O   0  0  0  0  0  0  0  0  0  0  0  0
  -17.6980   24.5463  -23.7996 H   0  0  0  0  0  0  0  0  0  0  0  0
  -15.9392   23.8941  -25.4165 H   0  0  0  0  0  0  0  0  0  0  0  0
  -19.9567   23.5128  -23.9121 H   0  0  0  0  0  0  0  0  0  0  0  0
  -16.4035   22.2053  -27.1716 H   0  0  0  0  0  0  0  0  0  0  0  0
  -24.4497   16.0474  -29.3692 H   0  0  0  0  0  0  0  0  0  0  0  0
  -19.3588   13.6998  -29.8210 H   0  0  0  0  0  0  0  0  0  0  0  0
  -25.7720   16.4564  -33.2787 H   0  0  0  0  0  0  0  0  0  0  0  0
  -21.5131   17.8338  -29.5805 H   0  0  0  0  0  0  0  0  0  0  0  0
  -19.9407   15.2440  -26.7987 H   0  0  0  0  0  0  0  0  0  0  0  0
  -24.0949   18.5164  -28.0288 H   0  0  0  0  0  0  0  0  0  0  0  0
  -19.6272   16.5084  -29.5992 H   0  0  0  0  0  0  0  0  0  0  0  0
  -21.1943   21.1945  -24.9380 H   0  0  0  0  0  0  0  0  0  0  0  0
  -21.3868   22.1882  -26.4209 H   0  0  0  0  0  0  0  0  0  0  0  0
  -19.2866   21.4131  -28.3858 H   0  0  0  0  0  0  0  0  0  0  0  0
  -19.8974   19.5417  -26.0242 H   0  0  0  0  0  0  0  0  0  0  0  0
  -23.0881   10.4767  -29.9372 H   0  0  0  0  0  0  0  0  0  0  0  0
  -22.8456   11.2841  -31.5022 H   0  0  0  0  0  0  0  0  0  0  0  0
  -24.2130   11.7451  -30.4720 H   0  0  0  0  0  0  0  0  0  0  0  0
  -17.3141   20.1628  -28.6000 H   0  0  0  0  0  0  0  0  0  0  0  0
  -17.4639   19.4812  -26.9448 H   0  0  0  0  0  0  0  0  0  0  0  0
  -24.2455   18.1523  -33.6461 H   0  0  0  0  0  0  0  0  0  0  0  0
  -23.9155   13.0071  -28.5885 H   0  0  0  0  0  0  0  0  0  0  0  0
  -21.2791   20.1720  -28.5106 H   0  0  0  0  0  0  0  0  0  0  0  0
  -19.2586   18.7743  -29.2351 H   0  0  0  0  0  0  0  0  0  0  0  0
  1  2  1  0  0  0  0
  1  3  2  0  0  0  0
  2  4  2  0  0  0  0
  3  5  1  0  0  0  0
  4  6  1  0  0  0  0
  5  6  2  0  0  0  0
  5 21  1  0  0  0  0
  6 22  1  0  0  0  0
  7 10  2  0  0  0  0
  7 26  1  0  0  0  0
  8 11  2  0  0  0  0
  8 27  1  0  0  0  0
  9 26  2  0  0  0  0
  9 28  1  0  0  0  0
 10 12  1  0  0  0  0
 10 15  1  0  0  0  0
 11 13  1  0  0  0  0
 11 16  1  0  0  0  0
 12 28  1  0  0  0  0
 12 32  2  0  0  0  0
 13 29  1  0  0  0  0
 13 33  2  0  0  0  0
 14 24  1  0  0  0  0
 14 27  2  0  0  0  0
 14 29  1  0  0  0  0
 15 17  2  0  0  0  0
 16 18  2  0  0  0  0
 17 19  1  0  0  0  0
 18 20  1  0  0  0  0
 19 30  1  0  0  0  0
 19 34  2  0  0  0  0
 20 31  1  0  0  0  0
 20 35  2  0  0  0  0
 21 23  1  0  0  0  0
 22 23  1  0  0  0  0
 22 25  1  0  0  0  0
 23 30  1  0  0  0  0
 25 31  1  0  0  0  0
  1 36  1  0  0  0  0
  2 37  1  0  0  0  0
  3 38  1  0  0  0  0
  4 39  1  0  0  0  0
  7 40  1  0  0  0  0
  8 41  1  0  0  0  0
  9 42  1  0  0  0  0
 15 43  1  0  0  0  0
 16 44  1  0  0  0  0
 17 45  1  0  0  0  0
 18 46  1  0  0  0  0
 21 47  1  0  0  0  0
 21 48  1  0  0  0  0
 22 49  1  0  0  0  0
 23 50  1  0  0  0  0
 24 51  1  0  0  0  0
 24 52  1  0  0  0  0
 24 53  1  0  0  0  0
 25 54  1  0  0  0  0
 25 55  1  0  0  0  0
 28 56  1  0  0  0  0
 29 57  1  0  0  0  0
 30 58  1  0  0  0  0
 31 59  1  0  0  0  0
M  END
> <FRED Chemgauss4 score>
-4.071442

$$$$
96
  -OEChem-08042116223D

 61 64  0     1  0  0  0  0  0999 V2000
  -21.8190   12.6859  -19.4229 C   0  0  0  0  0  0  0  0  0  0  0  0
  -22.6383   13.7957  -19.6068 C   0  0  0  0  0  0  0  0  0  0  0  0
  -20.8565   12.3619  -20.3795 C   0  0  0  0  0  0  0  0  0  0  0  0
  -22.4983   14.5858  -20.7481 C   0  0  0  0  0  0  0  0  0  0  0  0
  -19.7381   12.8348  -22.5075 C   0  0  0  0  0  0  0  0  0  0  0  0
  -19.5982   13.6248  -23.6488 C   0  0  0  0  0  0  0  0  0  0  0  0
  -21.3801   15.0586  -22.8762 C   0  0  0  0  0  0  0  0  0  0  0  0
  -20.7016   13.1460  -21.5343 C   0  0  0  0  0  0  0  0  0  0  0  0
  -21.5349   14.2746  -21.7214 C   0  0  0  0  0  0  0  0  0  0  0  0
  -20.4175   14.7346  -23.8328 C   0  0  0  0  0  0  0  0  0  0  0  0
  -22.8031   13.3655  -31.5013 C   0  0  0  0  0  0  0  0  0  0  0  0
  -22.7642   14.6801  -31.2879 C   0  0  0  0  0  0  0  0  0  0  0  0
  -20.2369   21.6131  -29.6985 C   0  0  0  0  0  0  0  0  0  0  0  0
  -21.1490   20.6311  -29.6508 C   0  0  0  0  0  0  0  0  0  0  0  0
  -22.9162   12.4161  -30.3782 C   0  0  0  0  0  0  0  0  0  0  0  0
  -22.8335   15.2431  -29.9222 C   0  0  0  0  0  0  0  0  0  0  0  0
  -21.8772   20.2902  -30.8990 C   0  0  0  0  0  0  0  0  0  0  0  0
  -20.5436   22.0474  -31.8988 C   0  0  0  0  0  0  0  0  0  0  0  0
  -21.4300   19.9158  -28.4377 C   0  0  0  0  0  0  0  0  0  0  0  0
  -20.5034   19.2128  -27.7741 C   0  0  0  0  0  0  0  0  0  0  0  0
  -20.8669   18.4942  -26.5215 C   0  0  0  0  0  0  0  0  0  0  0  0
  -21.6916   14.5912  -26.8447 C   0  0  0  0  0  0  0  0  0  0  0  0
  -20.2575   22.7879  -33.1730 C   0  0  0  0  0  0  0  0  0  0  0  0
  -23.0128   14.8174  -27.5342 C   0  0  0  0  0  0  0  0  0  0  0  0
  -19.8908   17.0511  -24.7623 C   0  0  0  0  0  0  0  0  0  0  0  0
  -20.2663   15.5783  -25.0536 C   0  0  2  0  0  0  0  0  0  0  0  0
  -19.9053   22.3471  -30.8105 N   0  0  0  0  0  0  0  0  0  0  0  0
  -21.5037   21.0603  -31.9852 N   0  0  0  0  0  0  0  0  0  0  0  0
  -22.9777   12.9646  -29.1230 N   0  0  0  0  0  0  0  0  0  0  0  0
  -22.9381   14.3244  -28.9173 N   0  0  0  0  0  0  0  0  0  0  0  0
  -19.7844   17.8222  -25.9734 N   0  0  0  0  0  0  0  0  0  0  0  0
  -21.4833   15.5527  -25.8913 N   0  0  0  0  0  0  0  0  0  0  0  0
  -22.9501   11.2071  -30.5972 O   0  0  0  0  0  0  0  0  0  0  0  0
  -22.7948   16.4642  -29.7791 O   0  0  0  0  0  0  0  0  0  0  0  0
  -22.7275   19.4068  -30.9485 O   0  0  0  0  0  0  0  0  0  0  0  0
  -22.0016   18.5097  -26.0552 O   0  0  0  0  0  0  0  0  0  0  0  0
  -20.9347   13.6644  -27.1215 O   0  0  0  0  0  0  0  0  0  0  0  0
  -21.9289   12.0713  -18.5343 H   0  0  0  0  0  0  0  0  0  0  0  0
  -23.3877   14.0469  -18.8619 H   0  0  0  0  0  0  0  0  0  0  0  0
  -20.2268   11.4899  -20.2143 H   0  0  0  0  0  0  0  0  0  0  0  0
  -23.1500   15.4486  -20.8713 H   0  0  0  0  0  0  0  0  0  0  0  0
  -19.0869   11.9716  -22.3845 H   0  0  0  0  0  0  0  0  0  0  0  0
  -18.8461   13.3653  -24.3892 H   0  0  0  0  0  0  0  0  0  0  0  0
  -22.0145   15.9298  -23.0322 H   0  0  0  0  0  0  0  0  0  0  0  0
  -22.7520   12.9603  -32.5055 H   0  0  0  0  0  0  0  0  0  0  0  0
  -22.6808   15.3755  -32.1158 H   0  0  0  0  0  0  0  0  0  0  0  0
  -19.6836   21.8913  -28.8057 H   0  0  0  0  0  0  0  0  0  0  0  0
  -22.4545   19.9787  -28.0834 H   0  0  0  0  0  0  0  0  0  0  0  0
  -19.4795   19.1501  -28.1295 H   0  0  0  0  0  0  0  0  0  0  0  0
  -19.4641   22.2801  -33.7159 H   0  0  0  0  0  0  0  0  0  0  0  0
  -19.9487   23.8042  -32.9397 H   0  0  0  0  0  0  0  0  0  0  0  0
  -21.1570   22.8183  -33.7834 H   0  0  0  0  0  0  0  0  0  0  0  0
  -23.8029   14.2792  -27.0022 H   0  0  0  0  0  0  0  0  0  0  0  0
  -23.2469   15.8859  -27.5459 H   0  0  0  0  0  0  0  0  0  0  0  0
  -20.6513   17.5453  -24.1471 H   0  0  0  0  0  0  0  0  0  0  0  0
  -18.9337   17.1346  -24.2364 H   0  0  0  0  0  0  0  0  0  0  0  0
  -19.4591   15.1688  -25.6905 H   0  0  0  0  0  0  0  0  0  0  0  0
  -21.9621   20.8809  -32.8739 H   0  0  0  0  0  0  0  0  0  0  0  0
  -23.0558   12.3710  -28.3030 H   0  0  0  0  0  0  0  0  0  0  0  0
  -18.8842   17.8413  -26.4485 H   0  0  0  0  0  0  0  0  0  0  0  0
  -22.1783   16.2611  -25.7578 H   0  0  0  0  0  0  0  0  0  0  0  0
  1  2  1  0  0  0  0
  1  3  2  0  0  0  0
  2  4  2  0  0  0  0
  3  8  1  0  0  0  0
  4  9  1  0  0  0  0
  5  6  2  0  0  0  0
  5  8  1  0  0  0  0
  6 10  1  0  0  0  0
  7  9  1  0  0  0  0
  7 10  2  0  0  0  0
  8  9  2  0  0  0  0
 10 26  1  0  0  0  0
 11 12  2  0  0  0  0
 11 15  1  0  0  0  0
 12 16  1  0  0  0  0
 13 14  2  0  0  0  0
 13 27  1  0  0  0  0
 14 17  1  0  0  0  0
 14 19  1  0  0  0  0
 15 29  1  0  0  0  0
 15 33  2  0  0  0  0
 16 30  1  0  0  0  0
 16 34  2  0  0  0  0
 17 28  1  0  0  0  0
 17 35  2  0  0  0  0
 18 23  1  0  0  0  0
 18 27  2  0  0  0  0
 18 28  1  0  0  0  0
 19 20  2  0  0  0  0
 20 21  1  0  0  0  0
 21 31  1  0  0  0  0
 21 36  2  0  0  0  0
 22 24  1  0  0  0  0
 22 32  1  0  0  0  0
 22 37  2  0  0  0  0
 24 30  1  0  0  0  0
 25 26  1  0  0  0  0
 25 31  1  0  0  0  0
 26 32  1  0  0  0  0
 29 30  1  0  0  0  0
  1 38  1  0  0  0  0
  2 39  1  0  0  0  0
  3 40  1  0  0  0  0
  4 41  1  0  0  0  0
  5 42  1  0  0  0  0
  6 43  1  0  0  0  0
  7 44  1  0  0  0  0
 11 45  1  0  0  0  0
 12 46  1  0  0  0  0
 13 47  1  0  0  0  0
 19 48  1  0  0  0  0
 20 49  1  0  0  0  0
 23 50  1  0  0  0  0
 23 51  1  0  0  0  0
 23 52  1  0  0  0  0
 24 53  1  0  0  0  0
 24 54  1  0  0  0  0
 25 55  1  0  0  0  0
 25 56  1  0  0  0  0
 26 57  1  0  0  0  0
 28 58  1  0  0  0  0
 29 59  1  0  0  0  0
 31 60  1  0  0  0  0
 32 61  1  0  0  0  0
M  END
> <FRED Chemgauss4 score>
1.078255

$$$$
33
  -OEChem-08042116223D

 58 61  0     1  0  0  0  0  0999 V2000
  -25.7563   18.5009  -32.3585 C   0  0  0  0  0  0  0  0  0  0  0  0
  -25.3251   19.7800  -31.9760 C   0  0  0  0  0  0  0  0  0  0  0  0
  -21.7579   15.7888  -24.4498 C   0  0  0  0  0  0  0  0  0  0  0  0
  -19.9476   14.1908  -24.3669 C   0  0  0  0  0  0  0  0  0  0  0  0
  -22.0944   15.4758  -23.1328 C   0  0  0  0  0  0  0  0  0  0  0  0
  -20.2842   13.8779  -23.0500 C   0  0  0  0  0  0  0  0  0  0  0  0
  -24.8815   17.4141  -32.3155 C   0  0  0  0  0  0  0  0  0  0  0  0
  -24.0137   19.9901  -31.5432 C   0  0  0  0  0  0  0  0  0  0  0  0
  -20.6845   15.1463  -25.0669 C   0  0  0  0  0  0  0  0  0  0  0  0
  -21.3576   14.5203  -22.4329 C   0  0  0  0  0  0  0  0  0  0  0  0
  -23.5865   17.6293  -31.8727 C   0  0  0  0  0  0  0  0  0  0  0  0
  -23.1533   18.9041  -31.4847 C   0  0  0  0  0  0  0  0  0  0  0  0
  -19.4463   21.5766  -25.5303 C   0  0  0  0  0  0  0  0  0  0  0  0
  -18.4919   23.2003  -24.2902 C   0  0  0  0  0  0  0  0  0  0  0  0
  -18.7065   21.8264  -26.6215 C   0  0  0  0  0  0  0  0  0  0  0  0
  -17.7050   22.9227  -26.5559 C   0  0  0  0  0  0  0  0  0  0  0  0
  -20.3286   15.4762  -26.4583 C   0  0  0  0  0  0  0  0  0  0  0  0
  -18.8597   21.0670  -27.8307 C   0  0  0  0  0  0  0  0  0  0  0  0
  -21.1552   16.0627  -27.3366 C   0  0  0  0  0  0  0  0  0  0  0  0
  -20.0109   21.0047  -28.5120 C   0  0  0  0  0  0  0  0  0  0  0  0
  -21.7079   14.1955  -21.0592 C   0  0  0  0  0  0  0  0  0  0  0  0
  -20.6826   16.3587  -28.7192 C   0  0  0  0  0  0  0  0  0  0  0  0
  -20.0972   20.1957  -29.7592 C   0  0  0  0  0  0  0  0  0  0  0  0
  -22.4747   16.6299  -31.7845 C   0  0  0  0  0  0  0  0  0  0  0  0
  -21.7004   18.8738  -31.1017 C   0  0  2  0  0  0  0  0  0  0  0  0
  -21.4698   17.3579  -30.8703 C   0  0  1  0  0  0  0  0  0  0  0  0
  -19.3659   22.2494  -24.3351 N   0  0  0  0  0  0  0  0  0  0  0  0
  -17.6689   23.5633  -25.3313 N   0  0  0  0  0  0  0  0  0  0  0  0
  -20.9413   13.2354  -20.4052 N   0  0  0  0  0  0  0  0  0  0  0  0
  -21.3724   19.6900  -29.9655 N   0  0  0  0  0  0  0  0  0  0  0  0
  -21.6673   16.9649  -29.4897 N   0  0  0  0  0  0  0  0  0  0  0  0
  -16.9861   23.2202  -27.5048 O   0  0  0  0  0  0  0  0  0  0  0  0
  -22.6688   14.7411  -20.4889 O   0  0  0  0  0  0  0  0  0  0  0  0
  -19.5492   16.0863  -29.1013 O   0  0  0  0  0  0  0  0  0  0  0  0
  -19.1342   20.0118  -30.4967 O   0  0  0  0  0  0  0  0  0  0  0  0
  -26.7816   18.3557  -32.6870 H   0  0  0  0  0  0  0  0  0  0  0  0
  -26.0204   20.6143  -32.0125 H   0  0  0  0  0  0  0  0  0  0  0  0
  -22.3415   16.5357  -24.9827 H   0  0  0  0  0  0  0  0  0  0  0  0
  -19.1080   13.6820  -24.8341 H   0  0  0  0  0  0  0  0  0  0  0  0
  -22.9325   15.9830  -22.6613 H   0  0  0  0  0  0  0  0  0  0  0  0
  -19.7034   13.1320  -22.5137 H   0  0  0  0  0  0  0  0  0  0  0  0
  -25.2127   16.4275  -32.6218 H   0  0  0  0  0  0  0  0  0  0  0  0
  -23.6814   20.9838  -31.2580 H   0  0  0  0  0  0  0  0  0  0  0  0
  -20.1883   20.7830  -25.5405 H   0  0  0  0  0  0  0  0  0  0  0  0
  -18.3415   23.8054  -23.3832 H   0  0  0  0  0  0  0  0  0  0  0  0
  -19.3097   15.2274  -26.7462 H   0  0  0  0  0  0  0  0  0  0  0  0
  -17.9734   20.5372  -28.1667 H   0  0  0  0  0  0  0  0  0  0  0  0
  -22.1692   16.3448  -27.0739 H   0  0  0  0  0  0  0  0  0  0  0  0
  -20.8967   21.5344  -28.1750 H   0  0  0  0  0  0  0  0  0  0  0  0
  -22.8490   15.7017  -31.3308 H   0  0  0  0  0  0  0  0  0  0  0  0
  -22.0356   16.4104  -32.7660 H   0  0  0  0  0  0  0  0  0  0  0  0
  -21.0569   19.2171  -31.9494 H   0  0  0  0  0  0  0  0  0  0  0  0
  -20.4681   17.0928  -31.1353 H   0  0  0  0  0  0  0  0  0  0  0  0
  -17.0117   24.3266  -25.2001 H   0  0  0  0  0  0  0  0  0  0  0  0
  -20.1713   12.7958  -20.8977 H   0  0  0  0  0  0  0  0  0  0  0  0
  -21.1358   12.9654  -19.4464 H   0  0  0  0  0  0  0  0  0  0  0  0
  -22.1043   19.8705  -29.2810 H   0  0  0  0  0  0  0  0  0  0  0  0
  -22.5758   17.1423  -29.0614 H   0  0  0  0  0  0  0  0  0  0  0  0
  1  2  1  0  0  0  0
  1  7  2  0  0  0  0
  2  8  2  0  0  0  0
  3  5  2  0  0  0  0
  3  9  1  0  0  0  0
  4  6  1  0  0  0  0
  4  9  2  0  0  0  0
  5 10  1  0  0  0  0
  6 10  2  0  0  0  0
  7 11  1  0  0  0  0
  8 12  1  0  0  0  0
  9 17  1  0  0  0  0
 10 21  1  0  0  0  0
 11 12  2  0  0  0  0
 11 24  1  0  0  0  0
 12 25  1  0  0  0  0
 13 15  2  0  0  0  0
 13 27  1  0  0  0  0
 14 27  2  0  0  0  0
 14 28  1  0  0  0  0
 15 16  1  0  0  0  0
 15 18  1  0  0  0  0
 16 28  1  0  0  0  0
 16 32  2  0  0  0  0
 17 19  2  0  0  0  0
 18 20  2  0  0  0  0
 19 22  1  0  0  0  0
 20 23  1  0  0  0  0
 21 29  1  0  0  0  0
 21 33  2  0  0  0  0
 22 31  1  0  0  0  0
 22 34  2  0  0  0  0
 23 30  1  0  0  0  0
 23 35  2  0  0  0  0
 24 26  1  0  0  0  0
 25 26  1  0  0  0  0
 25 30  1  0  0  0  0
 26 31  1  0  0  0  0
  1 36  1  0  0  0  0
  2 37  1  0  0  0  0
  3 38  1  0  0  0  0
  4 39  1  0  0  0  0
  5 40  1  0  0  0  0
  6 41  1  0  0  0  0
  7 42  1  0  0  0  0
  8 43  1  0  0  0  0
 13 44  1  0  0  0  0
 14 45  1  0  0  0  0
 17 46  1  0  0  0  0
 18 47  1  0  0  0  0
 19 48  1  0  0  0  0
 20 49  1  0  0  0  0
 24 50  1  0  0  0  0
 24 51  1  0  0  0  0
 25 52  1  0  0  0  0
 26 53  1  0  0  0  0
 28 54  1  0  0  0  0
 29 55  1  0  0  0  0
 29 56  1  0  0  0  0
 30 57  1  0  0  0  0
 31 58  1  0  0  0  0
M  END
> <FRED Chemgauss4 score>
-4.523827

$$$$
93
  -OEChem-08042116223D

 57 60  0     1  0  0  0  0  0999 V2000
  -25.4305   17.4592  -32.8433 C   0  0  0  0  0  0  0  0  0  0  0  0
  -24.3650   18.2207  -33.3487 C   0  0  0  0  0  0  0  0  0  0  0  0
  -25.2373   16.5891  -31.7682 C   0  0  0  0  0  0  0  0  0  0  0  0
  -23.0907   18.1245  -32.7855 C   0  0  0  0  0  0  0  0  0  0  0  0
  -23.9681   16.4904  -31.2233 C   0  0  0  0  0  0  0  0  0  0  0  0
  -22.9049   17.2539  -31.7234 C   0  0  0  0  0  0  0  0  0  0  0  0
  -19.7844   13.6228  -24.2852 C   0  0  0  0  0  0  0  0  0  0  0  0
  -18.0807   22.1046  -27.4513 C   0  0  0  0  0  0  0  0  0  0  0  0
  -20.1710   14.7368  -24.9240 C   0  0  0  0  0  0  0  0  0  0  0  0
  -18.8232   21.0222  -27.1823 C   0  0  0  0  0  0  0  0  0  0  0  0
  -19.9133   16.0446  -24.2700 C   0  0  0  0  0  0  0  0  0  0  0  0
  -19.5684   20.9877  -25.8859 C   0  0  0  0  0  0  0  0  0  0  0  0
  -18.9389   14.7177  -22.4936 C   0  0  0  0  0  0  0  0  0  0  0  0
  -18.6270   23.2314  -25.3774 C   0  0  0  0  0  0  0  0  0  0  0  0
  -20.8177   14.6902  -26.2054 C   0  0  0  0  0  0  0  0  0  0  0  0
  -18.9155   19.9180  -28.0959 C   0  0  0  0  0  0  0  0  0  0  0  0
  -20.2464   14.1548  -27.2918 C   0  0  0  0  0  0  0  0  0  0  0  0
  -20.0725   19.5106  -28.6333 C   0  0  0  0  0  0  0  0  0  0  0  0
  -20.9767   14.1420  -28.5895 C   0  0  0  0  0  0  0  0  0  0  0  0
  -20.0931   18.3562  -29.5737 C   0  0  0  0  0  0  0  0  0  0  0  0
  -23.5314   15.6593  -30.0562 C   0  0  0  0  0  0  0  0  0  0  0  0
  -21.6470   17.0012  -30.9450 C   0  0  2  0  0  0  0  0  0  0  0  0
  -22.0030   15.6642  -30.2501 C   0  0  1  0  0  0  0  0  0  0  0  0
  -18.2627   14.7787  -21.1546 C   0  0  0  0  0  0  0  0  0  0  0  0
  -19.1618   13.5739  -23.0624 N   0  0  0  0  0  0  0  0  0  0  0  0
  -17.9763   23.1691  -26.5983 N   0  0  0  0  0  0  0  0  0  0  0  0
  -19.2855   15.9351  -23.0427 N   0  0  0  0  0  0  0  0  0  0  0  0
  -19.4052   22.1107  -25.0835 N   0  0  0  0  0  0  0  0  0  0  0  0
  -21.3735   18.0773  -30.0289 N   0  0  0  0  0  0  0  0  0  0  0  0
  -21.2938   15.4218  -29.0247 N   0  0  0  0  0  0  0  0  0  0  0  0
  -20.2322   17.1138  -24.7808 O   0  0  0  0  0  0  0  0  0  0  0  0
  -20.2688   20.0305  -25.5652 O   0  0  0  0  0  0  0  0  0  0  0  0
  -18.5283   24.1923  -24.6137 O   0  0  0  0  0  0  0  0  0  0  0  0
  -21.2561   13.1043  -29.1814 O   0  0  0  0  0  0  0  0  0  0  0  0
  -19.0796   17.7401  -29.8875 O   0  0  0  0  0  0  0  0  0  0  0  0
  -26.4161   17.5518  -33.2916 H   0  0  0  0  0  0  0  0  0  0  0  0
  -24.5359   18.8949  -34.1834 H   0  0  0  0  0  0  0  0  0  0  0  0
  -26.0642   16.0084  -31.3741 H   0  0  0  0  0  0  0  0  0  0  0  0
  -22.2712   18.7205  -33.1726 H   0  0  0  0  0  0  0  0  0  0  0  0
  -19.9557   12.6472  -24.7319 H   0  0  0  0  0  0  0  0  0  0  0  0
  -17.5107   22.2071  -28.3684 H   0  0  0  0  0  0  0  0  0  0  0  0
  -21.8137   15.1213  -26.2434 H   0  0  0  0  0  0  0  0  0  0  0  0
  -17.9773   19.4240  -28.3300 H   0  0  0  0  0  0  0  0  0  0  0  0
  -19.2504   13.7245  -27.2528 H   0  0  0  0  0  0  0  0  0  0  0  0
  -21.0101   20.0050  -28.3982 H   0  0  0  0  0  0  0  0  0  0  0  0
  -23.8312   16.1489  -29.1229 H   0  0  0  0  0  0  0  0  0  0  0  0
  -23.9362   14.6437  -30.0959 H   0  0  0  0  0  0  0  0  0  0  0  0
  -20.7788   16.8796  -31.6010 H   0  0  0  0  0  0  0  0  0  0  0  0
  -21.7329   14.8393  -30.9254 H   0  0  0  0  0  0  0  0  0  0  0  0
  -17.1869   14.8459  -21.2956 H   0  0  0  0  0  0  0  0  0  0  0  0
  -18.5020   13.8824  -20.5870 H   0  0  0  0  0  0  0  0  0  0  0  0
  -18.6157   15.6517  -20.6106 H   0  0  0  0  0  0  0  0  0  0  0  0
  -17.3923   23.9530  -26.8743 H   0  0  0  0  0  0  0  0  0  0  0  0
  -19.0779   16.7920  -22.5380 H   0  0  0  0  0  0  0  0  0  0  0  0
  -19.9008   22.1163  -24.1963 H   0  0  0  0  0  0  0  0  0  0  0  0
  -22.1612   18.6257  -29.6888 H   0  0  0  0  0  0  0  0  0  0  0  0
  -21.0457   16.2247  -28.4478 H   0  0  0  0  0  0  0  0  0  0  0  0
  1  2  1  0  0  0  0
  1  3  2  0  0  0  0
  2  4  2  0  0  0  0
  3  5  1  0  0  0  0
  4  6  1  0  0  0  0
  5  6  2  0  0  0  0
  5 21  1  0  0  0  0
  6 22  1  0  0  0  0
  7  9  2  0  0  0  0
  7 25  1  0  0  0  0
  8 10  2  0  0  0  0
  8 26  1  0  0  0  0
  9 11  1  0  0  0  0
  9 15  1  0  0  0  0
 10 12  1  0  0  0  0
 10 16  1  0  0  0  0
 11 27  1  0  0  0  0
 11 31  2  0  0  0  0
 12 28  1  0  0  0  0
 12 32  2  0  0  0  0
 13 24  1  0  0  0  0
 13 25  2  0  0  0  0
 13 27  1  0  0  0  0
 14 26  1  0  0  0  0
 14 28  1  0  0  0  0
 14 33  2  0  0  0  0
 15 17  2  0  0  0  0
 16 18  2  0  0  0  0
 17 19  1  0  0  0  0
 18 20  1  0  0  0  0
 19 30  1  0  0  0  0
 19 34  2  0  0  0  0
 20 29  1  0  0  0  0
 20 35  2  0  0  0  0
 21 23  1  0  0  0  0
 22 23  1  0  0  0  0
 22 29  1  0  0  0  0
 23 30  1  0  0  0  0
  1 36  1  0  0  0  0
  2 37  1  0  0  0  0
  3 38  1  0  0  0  0
  4 39  1  0  0  0  0
  7 40  1  0  0  0  0
  8 41  1  0  0  0  0
 15 42  1  0  0  0  0
 16 43  1  0  0  0  0
 17 44  1  0  0  0  0
 18 45  1  0  0  0  0
 21 46  1  0  0  0  0
 21 47  1  0  0  0  0
 22 48  1  0  0  0  0
 23 49  1  0  0  0  0
 24 50  1  0  0  0  0
 24 51  1  0  0  0  0
 24 52  1  0  0  0  0
 26 53  1  0  0  0  0
 27 54  1  0  0  0  0
 28 55  1  0  0  0  0
 29 56  1  0  0  0  0
 30 57  1  0  0  0  0
M  END
> <FRED Chemgauss4 score>
-6.699852

$$$$
83
  -OEChem-08042116223D

 56 59  0     1  0  0  0  0  0999 V2000
  -25.5257   17.3573  -32.7714 C   0  0  0  0  0  0  0  0  0  0  0  0
  -24.4484   18.1034  -33.2750 C   0  0  0  0  0  0  0  0  0  0  0  0
  -25.3403   16.4616  -31.7162 C   0  0  0  0  0  0  0  0  0  0  0  0
  -23.1702   17.9658  -32.7298 C   0  0  0  0  0  0  0  0  0  0  0  0
  -24.0674   16.3220  -31.1893 C   0  0  0  0  0  0  0  0  0  0  0  0
  -22.9923   17.0701  -31.6876 C   0  0  0  0  0  0  0  0  0  0  0  0
  -19.8700   13.2172  -24.3622 C   0  0  0  0  0  0  0  0  0  0  0  0
  -19.4056   20.6472  -25.9451 C   0  0  0  0  0  0  0  0  0  0  0  0
  -18.9789   14.2573  -22.5707 C   0  0  0  0  0  0  0  0  0  0  0  0
  -20.2375   14.3535  -24.9739 C   0  0  0  0  0  0  0  0  0  0  0  0
  -18.7674   20.6493  -27.1246 C   0  0  0  0  0  0  0  0  0  0  0  0
  -19.9395   15.6436  -24.2984 C   0  0  0  0  0  0  0  0  0  0  0  0
  -17.9078   21.8142  -27.4539 C   0  0  0  0  0  0  0  0  0  0  0  0
  -18.5884   22.6527  -25.2862 C   0  0  0  0  0  0  0  0  0  0  0  0
  -20.9006   14.3479  -26.2477 C   0  0  0  0  0  0  0  0  0  0  0  0
  -18.8971   19.5661  -28.0585 C   0  0  0  0  0  0  0  0  0  0  0  0
  -20.3553   13.8210  -27.3515 C   0  0  0  0  0  0  0  0  0  0  0  0
  -20.0698   19.1970  -28.5893 C   0  0  0  0  0  0  0  0  0  0  0  0
  -21.1013   13.8514  -28.6400 C   0  0  0  0  0  0  0  0  0  0  0  0
  -20.1293   18.0624  -29.5519 C   0  0  0  0  0  0  0  0  0  0  0  0
  -23.6366   15.4577  -30.0443 C   0  0  0  0  0  0  0  0  0  0  0  0
  -21.7315   16.7722  -30.9301 C   0  0  2  0  0  0  0  0  0  0  0  0
  -22.1109   15.4304  -30.2573 C   0  0  1  0  0  0  0  0  0  0  0  0
  -18.4447   23.7904  -24.3172 C   0  0  0  0  0  0  0  0  0  0  0  0
  -19.2324   13.1294  -23.1483 N   0  0  0  0  0  0  0  0  0  0  0  0
  -19.3395   21.6364  -24.9951 N   0  0  0  0  0  0  0  0  0  0  0  0
  -19.2987   15.4937  -23.0827 N   0  0  0  0  0  0  0  0  0  0  0  0
  -17.8791   22.7782  -26.4629 N   0  0  0  0  0  0  0  0  0  0  0  0
  -21.4214   17.8230  -29.9964 N   0  0  0  0  0  0  0  0  0  0  0  0
  -21.3930   15.1468  -29.0458 N   0  0  0  0  0  0  0  0  0  0  0  0
  -20.2391   16.7298  -24.7843 O   0  0  0  0  0  0  0  0  0  0  0  0
  -17.2870   21.9008  -28.5089 O   0  0  0  0  0  0  0  0  0  0  0  0
  -21.4125   12.8327  -29.2487 O   0  0  0  0  0  0  0  0  0  0  0  0
  -19.1347   17.4290  -29.8905 O   0  0  0  0  0  0  0  0  0  0  0  0
  -26.5141   17.4821  -33.2054 H   0  0  0  0  0  0  0  0  0  0  0  0
  -24.6133   18.7980  -34.0941 H   0  0  0  0  0  0  0  0  0  0  0  0
  -26.1760   15.8928  -31.3233 H   0  0  0  0  0  0  0  0  0  0  0  0
  -22.3413   18.5500  -33.1154 H   0  0  0  0  0  0  0  0  0  0  0  0
  -20.0709   12.2551  -24.8253 H   0  0  0  0  0  0  0  0  0  0  0  0
  -20.0436   19.8123  -25.6684 H   0  0  0  0  0  0  0  0  0  0  0  0
  -18.4714   14.3065  -21.5952 H   0  0  0  0  0  0  0  0  0  0  0  0
  -21.8863   14.8030  -26.2648 H   0  0  0  0  0  0  0  0  0  0  0  0
  -17.9738   19.0548  -28.3140 H   0  0  0  0  0  0  0  0  0  0  0  0
  -19.3695   13.3666  -27.3335 H   0  0  0  0  0  0  0  0  0  0  0  0
  -20.9924   19.7085  -28.3327 H   0  0  0  0  0  0  0  0  0  0  0  0
  -23.9133   15.9354  -29.0979 H   0  0  0  0  0  0  0  0  0  0  0  0
  -24.0659   14.4529  -30.0990 H   0  0  0  0  0  0  0  0  0  0  0  0
  -20.8745   16.6433  -31.5992 H   0  0  0  0  0  0  0  0  0  0  0  0
  -21.8688   14.6130  -30.9520 H   0  0  0  0  0  0  0  0  0  0  0  0
  -17.6074   23.5949  -23.6518 H   0  0  0  0  0  0  0  0  0  0  0  0
  -19.3586   23.8887  -23.7360 H   0  0  0  0  0  0  0  0  0  0  0  0
  -18.2685   24.7126  -24.8658 H   0  0  0  0  0  0  0  0  0  0  0  0
  -19.0579   16.3264  -22.5531 H   0  0  0  0  0  0  0  0  0  0  0  0
  -17.3097   23.6045  -26.6213 H   0  0  0  0  0  0  0  0  0  0  0  0
  -22.1916   18.3829  -29.6358 H   0  0  0  0  0  0  0  0  0  0  0  0
  -21.1189   15.9319  -28.4564 H   0  0  0  0  0  0  0  0  0  0  0  0
  1  2  1  0  0  0  0
  1  3  2  0  0  0  0
  2  4  2  0  0  0  0
  3  5  1  0  0  0  0
  4  6  1  0  0  0  0
  5  6  2  0  0  0  0
  5 21  1  0  0  0  0
  6 22  1  0  0  0  0
  7 10  2  0  0  0  0
  7 25  1  0  0  0  0
  8 11  2  0  0  0  0
  8 26  1  0  0  0  0
  9 25  2  0  0  0  0
  9 27  1  0  0  0  0
 10 12  1  0  0  0  0
 10 15  1  0  0  0  0
 11 13  1  0  0  0  0
 11 16  1  0  0  0  0
 12 27  1  0  0  0  0
 12 31  2  0  0  0  0
 13 28  1  0  0  0  0
 13 32  2  0  0  0  0
 14 24  1  0  0  0  0
 14 26  2  0  0  0  0
 14 28  1  0  0  0  0
 15 17  2  0  0  0  0
 16 18  2  0  0  0  0
 17 19  1  0  0  0  0
 18 20  1  0  0  0  0
 19 30  1  0  0  0  0
 19 33  2  0  0  0  0
 20 29  1  0  0  0  0
 20 34  2  0  0  0  0
 21 23  1  0  0  0  0
 22 23  1  0  0  0  0
 22 29  1  0  0  0  0
 23 30  1  0  0  0  0
  1 35  1  0  0  0  0
  2 36  1  0  0  0  0
  3 37  1  0  0  0  0
  4 38  1  0  0  0  0
  7 39  1  0  0  0  0
  8 40  1  0  0  0  0
  9 41  1  0  0  0  0
 15 42  1  0  0  0  0
 16 43  1  0  0  0  0
 17 44  1  0  0  0  0
 18 45  1  0  0  0  0
 21 46  1  0  0  0  0
 21 47  1  0  0  0  0
 22 48  1  0  0  0  0
 23 49  1  0  0  0  0
 24 50  1  0  0  0  0
 24 51  1  0  0  0  0
 24 52  1  0  0  0  0
 27 53  1  0  0  0  0
 28 54  1  0  0  0  0
 29 55  1  0  0  0  0
 30 56  1  0  0  0  0
M  END
> <FRED Chemgauss4 score>
-8.243372

$$$$
