49
  MOLSOFT 08042116483D

 53 56  0  0  1  0  0  0  0  0999 V2000
  -21.5314   14.3769  -20.5938 C   0  0  0  0  0  0  0  0  0  0  0  0
  -20.8746   13.6452  -21.5744 C   0  0  0  0  0  0  0  0  0  0  0  0
  -21.8090   15.7215  -20.7831 C   0  0  0  0  0  0  0  0  0  0  0  0
  -20.5122   14.2331  -22.7764 C   0  0  0  0  0  0  0  0  0  0  0  0
  -21.4044   16.3119  -21.9656 C   0  0  0  0  0  0  0  0  0  0  0  0
  -20.7921   15.5782  -22.9512 C   0  0  0  0  0  0  0  0  0  0  0  0
  -22.6787   15.7238  -29.5670 C   0  0  0  0  0  0  0  0  0  0  0  0
  -22.6568   14.7907  -30.5248 C   0  0  0  0  0  0  0  0  0  0  0  0
  -17.0562   23.4046  -25.3634 C   0  0  0  0  0  0  0  0  0  0  0  0
  -18.2641   23.6417  -24.8384 C   0  0  0  0  0  0  0  0  0  0  0  0
  -22.8475   14.0664  -27.8465 C   0  0  0  0  0  0  0  0  0  0  0  0
  -22.7913   15.3613  -28.1775 C   0  0  0  0  0  0  0  0  0  0  0  0
  -22.7520   13.3589  -30.1483 C   0  0  0  0  0  0  0  0  0  0  0  0
  -16.8003   22.2416  -26.2326 C   0  0  0  0  0  0  0  0  0  0  0  0
  -19.4059   22.7335  -25.0718 C   0  0  0  0  0  0  0  0  0  0  0  0
  -21.5680   16.5836  -26.4318 C   0  0  0  0  0  0  0  0  0  0  0  0
  -19.7330   19.4071  -25.2304 C   0  0  0  0  0  0  0  0  0  0  0  0
  -21.5768   17.7365  -22.3793 C   0  0  0  0  0  0  0  0  0  0  0  0
  -20.5543   16.4127  -24.1658 C   0  0  2  0  0  0  0  0  0  0  0  0
  -20.5536   17.8159  -23.5173 C   0  0  1  0  0  0  0  0  0  0  0  0
  -22.8886   16.4559  -27.1576 C   0  0  0  0  0  0  0  0  0  0  0  0
  -20.1100   20.5791  -26.1230 C   0  0  0  0  0  0  0  0  0  0  0  0
  -22.8401   13.0943  -28.8054 N   0  0  0  0  0  0  0  0  0  0  0  0
  -17.8852   21.4487  -26.5047 N   0  0  0  0  0  0  0  0  0  0  0  0
  -19.1468   21.6584  -25.9087 N   0  0  0  0  0  0  0  0  0  0  0  0
  -21.6541   16.2263  -25.1030 N   0  0  0  0  0  0  0  0  0  0  0  0
  -20.7632   18.9362  -24.4318 N   0  0  0  0  0  0  0  0  0  0  0  0
  -22.7737   12.4804  -30.9905 O   0  0  0  0  0  0  0  0  0  0  0  0
  -15.6779   22.0196  -26.6543 O   0  0  0  0  0  0  0  0  0  0  0  0
  -20.4801   22.9530  -24.5306 O   0  0  0  0  0  0  0  0  0  0  0  0
  -20.5498   16.9739  -26.9849 O   0  0  0  0  0  0  0  0  0  0  0  0
  -18.6075   18.9271  -25.2243 O   0  0  0  0  0  0  0  0  0  0  0  0
  -21.8255   13.8901  -19.6690 H   0  0  0  0  0  0  0  0  0  0  0  0
  -20.6545   12.6003  -21.3963 H   0  0  0  0  0  0  0  0  0  0  0  0
  -22.3251   16.2965  -20.0211 H   0  0  0  0  0  0  0  0  0  0  0  0
  -20.0261   13.6535  -23.5560 H   0  0  0  0  0  0  0  0  0  0  0  0
  -22.6096   16.7729  -29.8358 H   0  0  0  0  0  0  0  0  0  0  0  0
  -22.5799   15.0426  -31.5755 H   0  0  0  0  0  0  0  0  0  0  0  0
  -16.2138   24.0514  -25.1625 H   0  0  0  0  0  0  0  0  0  0  0  0
  -18.4404   24.4959  -24.1952 H   0  0  0  0  0  0  0  0  0  0  0  0
  -22.9218   13.7203  -26.8225 H   0  0  0  0  0  0  0  0  0  0  0  0
  -22.6021   17.9169  -22.7229 H   0  0  0  0  0  0  0  0  0  0  0  0
  -21.3347   18.4366  -21.5720 H   0  0  0  0  0  0  0  0  0  0  0  0
  -19.5990   16.1906  -24.6549 H   0  0  0  0  0  0  0  0  0  0  0  0
  -19.5753   17.9777  -23.0574 H   0  0  0  0  0  0  0  0  0  0  0  0
  -23.7004   16.2435  -26.4520 H   0  0  0  0  0  0  0  0  0  0  0  0
  -23.1266   17.4239  -27.6111 H   0  0  0  0  0  0  0  0  0  0  0  0
  -20.0845   20.2622  -27.1711 H   0  0  0  0  0  0  0  0  0  0  0  0
  -21.1198   20.9326  -25.8908 H   0  0  0  0  0  0  0  0  0  0  0  0
  -22.9442   12.1241  -28.5329 H   0  0  0  0  0  0  0  0  0  0  0  0
  -17.7518   20.6178  -27.0747 H   0  0  0  0  0  0  0  0  0  0  0  0
  -22.5291   15.8689  -24.7350 H   0  0  0  0  0  0  0  0  0  0  0  0
  -21.6827   19.3616  -24.4842 H   0  0  0  0  0  0  0  0  0  0  0  0
  1 33  1  0  0  0  0
  1  2  1  0  0  0  0
  1  3  2  0  0  0  0
  2 34  1  0  0  0  0
  2  4  2  0  0  0  0
  3  5  1  0  0  0  0
  3 35  1  0  0  0  0
  4 36  1  0  0  0  0
  4  6  1  0  0  0  0
  5 18  1  0  0  0  0
  5  6  2  0  0  0  0
 19  6  1  0  0  0  0
  7  8  2  0  0  0  0
  7 37  1  0  0  0  0
  7 12  1  0  0  0  0
  8 13  1  0  0  0  0
  8 38  1  0  0  0  0
  9 10  2  0  0  0  0
  9 39  1  0  0  0  0
  9 14  1  0  0  0  0
 10 15  1  0  0  0  0
 10 40  1  0  0  0  0
 11 12  2  0  0  0  0
 11 41  1  0  0  0  0
 11 23  1  0  0  0  0
 12 21  1  0  0  0  0
 13 23  1  0  0  0  0
 13 28  2  0  0  0  0
 14 29  2  0  0  0  0
 14 24  1  0  0  0  0
 15 25  1  0  0  0  0
 15 30  2  0  0  0  0
 16 26  1  0  0  0  0
 16 31  2  0  0  0  0
 16 21  1  0  0  0  0
 17 27  1  0  0  0  0
 17 32  2  0  0  0  0
 17 22  1  0  0  0  0
 20 18  1  0  0  0  0
 18 42  1  0  0  0  0
 18 43  1  0  0  0  0
 19 44  1  0  0  0  0
 19 26  1  0  0  0  0
 19 20  1  0  0  0  0
 20 45  1  0  0  0  0
 20 27  1  0  0  0  0
 21 46  1  0  0  0  0
 21 47  1  0  0  0  0
 22 48  1  0  0  0  0
 22 49  1  0  0  0  0
 22 25  1  0  0  0  0
 23 50  1  0  0  0  0
 24 51  1  0  0  0  0
 24 25  1  0  0  0  0
 26 52  1  0  0  0  0
 27 53  1  0  0  0  0
M  ZZC   1 c1
M  ZZC   2 c2
M  ZZC   3 c3
M  ZZC   4 c4
M  ZZC   5 c5
M  ZZC   6 c6
M  ZZC   7 c7
M  ZZC   8 c8
M  ZZC   9 c9
M  ZZC  10 c10
M  ZZC  11 c11
M  ZZC  12 c12
M  ZZC  13 c13
M  ZZC  14 c14
M  ZZC  15 c15
M  ZZC  16 c16
M  ZZC  17 c17
M  ZZC  18 c18
M  ZZC  19 c19
M  ZZC  20 c20
M  ZZC  21 c21
M  ZZC  22 c22
M  ZZC  23 n1
M  ZZC  24 n2
M  ZZC  25 n3
M  ZZC  26 n4
M  ZZC  27 n5
M  ZZC  28 o1
M  ZZC  29 o2
M  ZZC  30 o3
M  ZZC  31 o4
M  ZZC  32 o5
M  ZZC  33 h1
M  ZZC  34 h2
M  ZZC  35 h3
M  ZZC  36 h4
M  ZZC  37 h5
M  ZZC  38 h6
M  ZZC  39 h7
M  ZZC  40 h8
M  ZZC  41 h9
M  ZZC  42 h10
M  ZZC  43 h11
M  ZZC  44 h12
M  ZZC  45 h13
M  ZZC  46 h14
M  ZZC  47 h15
M  ZZC  48 h16
M  ZZC  49 h17
M  ZZC  50 h18
M  ZZC  51 h19
M  ZZC  52 h20
M  ZZC  53 h21
M  ZZM   1 37
M  ZZI   1 125
M  ZZM   2 37
M  ZZI   2 125
M  ZZM   3 37
M  ZZI   3 125
M  ZZM   4 37
M  ZZI   4 125
M  ZZM   5 37
M  ZZI   5 124
M  ZZM   6 37
M  ZZI   6 124
M  ZZM   7 2
M  ZZI   7 120
M  ZZM   8 2
M  ZZI   8 120
M  ZZM   9 2
M  ZZI   9 120
M  ZZM  10 2
M  ZZI  10 120
M  ZZM  11 2
M  ZZI  11 120
M  ZZM  12 2
M  ZZI  12 120
M  ZZM  13 3
M  ZZI  13 121
M  ZZM  14 3
M  ZZI  14 121
M  ZZM  15 3
M  ZZI  15 121
M  ZZM  16 3
M  ZZI  16 121
M  ZZM  17 3
M  ZZI  17 121
M  ZZM  18 1
M  ZZI  18 112
M  ZZM  19 1
M  ZZI  19 113
M  ZZM  20 1
M  ZZI  20 113
M  ZZM  21 1
M  ZZI  21 112
M  ZZM  22 1
M  ZZI  22 112
M  ZZM  23 10
M  ZZI  23 191
M  ZZM  24 10
M  ZZI  24 191
M  ZZM  25 10
M  ZZI  25 192
M  ZZM  26 10
M  ZZI  26 211
M  ZZM  27 10
M  ZZI  27 211
M  ZZM  28 7
M  ZZI  28 81
M  ZZM  29 7
M  ZZI  29 81
M  ZZM  30 7
M  ZZI  30 81
M  ZZM  31 7
M  ZZI  31 81
M  ZZM  32 7
M  ZZI  32 81
M  ZZM  33 5
M  ZZI  33 1
M  ZZM  34 5
M  ZZI  34 1
M  ZZM  35 5
M  ZZI  35 1
M  ZZM  36 5
M  ZZI  36 1
M  ZZM  37 5
M  ZZI  37 1
M  ZZM  38 5
M  ZZI  38 1
M  ZZM  39 5
M  ZZI  39 1
M  ZZM  40 5
M  ZZI  40 1
M  ZZM  41 5
M  ZZI  41 1
M  ZZM  42 5
M  ZZI  42 1
M  ZZM  43 5
M  ZZI  43 1
M  ZZM  44 5
M  ZZI  44 1
M  ZZM  45 5
M  ZZI  45 1
M  ZZM  46 5
M  ZZI  46 1
M  ZZM  47 5
M  ZZI  47 1
M  ZZM  48 5
M  ZZI  48 1
M  ZZM  49 5
M  ZZI  49 1
M  ZZM  50 28
M  ZZI  50 11
M  ZZM  51 28
M  ZZI  51 11
M  ZZM  52 28
M  ZZI  52 11
M  ZZM  53 28
M  ZZI  53 11
M  END
> <IX>
1

> <NAME>
49

> <Score>
-40.431633

> <Natom>
53

> <Nflex>
6

> <Hbond>
-9.402191

> <Hphob>
-5.746416

> <VwInt>
-39.08014

> <Dsolv>
19.85412

> <SolEl>
6.359122

> <Eintl>
5.997565

> <RecConf>
ND

> <projPath>
icm/

> <NAME_>
49

$$$$
37
  MOLSOFT 08042116503D

 50 53  0  0  1  0  0  0  0  0999 V2000
  -21.8072   12.9291  -28.8690 C   0  0  0  0  0  0  0  0  0  0  0  0
  -20.6295   13.2276  -29.5382 C   0  0  0  0  0  0  0  0  0  0  0  0
  -22.2703   13.7553  -27.8577 C   0  0  0  0  0  0  0  0  0  0  0  0
  -19.9163   14.3772  -29.2397 C   0  0  0  0  0  0  0  0  0  0  0  0
  -21.5486   14.8981  -27.5595 C   0  0  0  0  0  0  0  0  0  0  0  0
  -20.4124   15.2175  -28.2568 C   0  0  0  0  0  0  0  0  0  0  0  0
  -17.0083   23.1666  -25.4715 C   0  0  0  0  0  0  0  0  0  0  0  0
  -18.0956   23.4700  -24.7533 C   0  0  0  0  0  0  0  0  0  0  0  0
  -21.1656   20.8852  -32.5502 C   0  0  0  0  0  0  0  0  0  0  0  0
  -20.2845   20.8450  -30.1566 C   0  0  0  0  0  0  0  0  0  0  0  0
  -21.0779   19.5529  -32.5155 C   0  0  0  0  0  0  0  0  0  0  0  0
  -20.2641   19.5101  -30.2689 C   0  0  0  0  0  0  0  0  0  0  0  0
  -20.8120   21.6233  -31.3072 C   0  0  0  0  0  0  0  0  0  0  0  0
  -16.9639   21.9733  -26.3392 C   0  0  0  0  0  0  0  0  0  0  0  0
  -19.2958   22.6069  -24.7513 C   0  0  0  0  0  0  0  0  0  0  0  0
  -19.7368   18.7499  -29.0921 C   0  0  0  0  0  0  0  0  0  0  0  0
  -19.8336   19.0111  -25.6726 C   0  0  0  0  0  0  0  0  0  0  0  0
  -21.8999   15.9610  -26.5737 C   0  0  0  0  0  0  0  0  0  0  0  0
  -19.9166   16.5777  -27.8953 C   0  0  2  0  0  0  0  0  0  0  0  0
  -20.6022   16.7823  -26.5193 C   0  0  1  0  0  0  0  0  0  0  0  0
  -20.2813   20.4650  -25.5749 C   0  0  0  0  0  0  0  0  0  0  0  0
  -20.6772   18.8553  -31.4101 N   0  0  0  0  0  0  0  0  0  0  0  0
  -18.1103   21.2194  -26.3826 N   0  0  0  0  0  0  0  0  0  0  0  0
  -19.1955   21.4478  -25.5072 N   0  0  0  0  0  0  0  0  0  0  0  0
  -20.3265   17.5157  -28.9331 N   0  0  0  0  0  0  0  0  0  0  0  0
  -20.8361   18.1785  -26.1486 N   0  0  0  0  0  0  0  0  0  0  0  0
  -20.9375   22.8351  -31.2300 O   0  0  0  0  0  0  0  0  0  0  0  0
  -15.9486   21.7057  -26.9585 O   0  0  0  0  0  0  0  0  0  0  0  0
  -20.2759   22.9336  -24.0980 O   0  0  0  0  0  0  0  0  0  0  0  0
  -18.8818   19.2221  -28.3561 O   0  0  0  0  0  0  0  0  0  0  0  0
  -18.7097   18.6306  -25.3711 O   0  0  0  0  0  0  0  0  0  0  0  0
  -22.3714   12.0446  -29.1460 H   0  0  0  0  0  0  0  0  0  0  0  0
  -20.2821   12.5660  -30.3207 H   0  0  0  0  0  0  0  0  0  0  0  0
  -23.1904   13.5222  -27.3347 H   0  0  0  0  0  0  0  0  0  0  0  0
  -19.0169   14.6323  -29.7921 H   0  0  0  0  0  0  0  0  0  0  0  0
  -16.1245   23.7921  -25.4505 H   0  0  0  0  0  0  0  0  0  0  0  0
  -18.1260   24.3533  -24.1261 H   0  0  0  0  0  0  0  0  0  0  0  0
  -21.4783   21.4431  -33.4244 H   0  0  0  0  0  0  0  0  0  0  0  0
  -19.9659   21.3907  -29.2753 H   0  0  0  0  0  0  0  0  0  0  0  0
  -21.3035   18.9277  -33.3723 H   0  0  0  0  0  0  0  0  0  0  0  0
  -22.7496   16.5472  -26.9430 H   0  0  0  0  0  0  0  0  0  0  0  0
  -22.1537   15.5448  -25.5924 H   0  0  0  0  0  0  0  0  0  0  0  0
  -18.8287   16.6176  -27.8019 H   0  0  0  0  0  0  0  0  0  0  0  0
  -19.9536   16.3445  -25.7485 H   0  0  0  0  0  0  0  0  0  0  0  0
  -20.8888   20.7215  -26.4502 H   0  0  0  0  0  0  0  0  0  0  0  0
  -20.9196   20.5675  -24.6914 H   0  0  0  0  0  0  0  0  0  0  0  0
  -20.5755   17.8419  -31.4918 H   0  0  0  0  0  0  0  0  0  0  0  0
  -18.1378   20.4010  -26.9934 H   0  0  0  0  0  0  0  0  0  0  0  0
  -21.0881   17.2459  -29.5459 H   0  0  0  0  0  0  0  0  0  0  0  0
  -21.7374   18.5827  -26.3813 H   0  0  0  0  0  0  0  0  0  0  0  0
  1  3  2  0  0  0  0
  1 32  1  0  0  0  0
  1  2  1  0  0  0  0
  2 33  1  0  0  0  0
  2  4  2  0  0  0  0
  3  5  1  0  0  0  0
  3 34  1  0  0  0  0
  4  6  1  0  0  0  0
  4 35  1  0  0  0  0
  5 18  1  0  0  0  0
  5  6  2  0  0  0  0
 19  6  1  0  0  0  0
  7  8  2  0  0  0  0
  7 36  1  0  0  0  0
  7 14  1  0  0  0  0
  8 15  1  0  0  0  0
  8 37  1  0  0  0  0
  9 11  2  0  0  0  0
  9 38  1  0  0  0  0
  9 13  1  0  0  0  0
 10 13  1  0  0  0  0
 10 39  1  0  0  0  0
 10 12  2  0  0  0  0
 11 22  1  0  0  0  0
 11 40  1  0  0  0  0
 12 22  1  0  0  0  0
 12 16  1  0  0  0  0
 13 27  2  0  0  0  0
 14 28  2  0  0  0  0
 14 23  1  0  0  0  0
 15 24  1  0  0  0  0
 15 29  2  0  0  0  0
 16 30  2  0  0  0  0
 16 25  1  0  0  0  0
 17 26  1  0  0  0  0
 17 31  2  0  0  0  0
 17 21  1  0  0  0  0
 20 18  1  0  0  0  0
 18 41  1  0  0  0  0
 18 42  1  0  0  0  0
 19 25  1  0  0  0  0
 19 43  1  0  0  0  0
 19 20  1  0  0  0  0
 20 44  1  0  0  0  0
 20 26  1  0  0  0  0
 21 45  1  0  0  0  0
 21 46  1  0  0  0  0
 21 24  1  0  0  0  0
 22 47  1  0  0  0  0
 23 48  1  0  0  0  0
 23 24  1  0  0  0  0
 25 49  1  0  0  0  0
 26 50  1  0  0  0  0
M  ZZC   1 c1
M  ZZC   2 c2
M  ZZC   3 c3
M  ZZC   4 c4
M  ZZC   5 c5
M  ZZC   6 c6
M  ZZC   7 c7
M  ZZC   8 c8
M  ZZC   9 c9
M  ZZC  10 c10
M  ZZC  11 c11
M  ZZC  12 c12
M  ZZC  13 c13
M  ZZC  14 c14
M  ZZC  15 c15
M  ZZC  16 c16
M  ZZC  17 c17
M  ZZC  18 c18
M  ZZC  19 c19
M  ZZC  20 c20
M  ZZC  21 c21
M  ZZC  22 n1
M  ZZC  23 n2
M  ZZC  24 n3
M  ZZC  25 n4
M  ZZC  26 n5
M  ZZC  27 o1
M  ZZC  28 o2
M  ZZC  29 o3
M  ZZC  30 o4
M  ZZC  31 o5
M  ZZC  32 h1
M  ZZC  33 h2
M  ZZC  34 h3
M  ZZC  35 h4
M  ZZC  36 h5
M  ZZC  37 h6
M  ZZC  38 h7
M  ZZC  39 h8
M  ZZC  40 h9
M  ZZC  41 h10
M  ZZC  42 h11
M  ZZC  43 h12
M  ZZC  44 h13
M  ZZC  45 h14
M  ZZC  46 h15
M  ZZC  47 h16
M  ZZC  48 h17
M  ZZC  49 h18
M  ZZC  50 h19
M  ZZM   1 37
M  ZZI   1 125
M  ZZM   2 37
M  ZZI   2 125
M  ZZM   3 37
M  ZZI   3 125
M  ZZM   4 37
M  ZZI   4 125
M  ZZM   5 37
M  ZZI   5 124
M  ZZM   6 37
M  ZZI   6 124
M  ZZM   7 2
M  ZZI   7 120
M  ZZM   8 2
M  ZZI   8 120
M  ZZM   9 2
M  ZZI   9 120
M  ZZM  10 2
M  ZZI  10 120
M  ZZM  11 2
M  ZZI  11 120
M  ZZM  12 2
M  ZZI  12 120
M  ZZM  13 3
M  ZZI  13 122
M  ZZM  14 3
M  ZZI  14 121
M  ZZM  15 3
M  ZZI  15 121
M  ZZM  16 3
M  ZZI  16 121
M  ZZM  17 3
M  ZZI  17 121
M  ZZM  18 1
M  ZZI  18 112
M  ZZM  19 1
M  ZZI  19 113
M  ZZM  20 1
M  ZZI  20 113
M  ZZM  21 1
M  ZZI  21 112
M  ZZM  22 40
M  ZZI  22 194
M  ZZM  23 10
M  ZZI  23 191
M  ZZM  24 10
M  ZZI  24 192
M  ZZM  25 10
M  ZZI  25 211
M  ZZM  26 10
M  ZZI  26 211
M  ZZM  27 7
M  ZZI  27 80
M  ZZM  28 7
M  ZZI  28 81
M  ZZM  29 7
M  ZZI  29 81
M  ZZM  30 7
M  ZZI  30 81
M  ZZM  31 7
M  ZZI  31 81
M  ZZM  32 5
M  ZZI  32 1
M  ZZM  33 5
M  ZZI  33 1
M  ZZM  34 5
M  ZZI  34 1
M  ZZM  35 5
M  ZZI  35 1
M  ZZM  36 5
M  ZZI  36 1
M  ZZM  37 5
M  ZZI  37 1
M  ZZM  38 5
M  ZZI  38 1
M  ZZM  39 5
M  ZZI  39 1
M  ZZM  40 5
M  ZZI  40 1
M  ZZM  41 5
M  ZZI  41 1
M  ZZM  42 5
M  ZZI  42 1
M  ZZM  43 5
M  ZZI  43 1
M  ZZM  44 5
M  ZZI  44 1
M  ZZM  45 5
M  ZZI  45 1
M  ZZM  46 5
M  ZZI  46 1
M  ZZM  47 28
M  ZZI  47 11
M  ZZM  48 28
M  ZZI  48 11
M  ZZM  49 28
M  ZZI  49 11
M  ZZM  50 28
M  ZZI  50 11
M  END
> <IX>
2

> <NAME>
37

> <Score>
-36.109008

> <Natom>
50

> <Nflex>
4

> <Hbond>
-6.126337

> <Hphob>
-5.575903

> <VwInt>
-36.983769

> <Dsolv>
14.155236

> <SolEl>
7.960508

> <Eintl>
3.066477

> <RecConf>
ND

> <projPath>
icm/

> <NAME_>
37

$$$$
9
  MOLSOFT 08042116523D

 56 59  0  0  1  0  0  0  0  0999 V2000
  -22.8039   14.7959  -30.7779 C   0  0  0  0  0  0  0  0  0  0  0  0
  -22.7076   16.1594  -31.0193 C   0  0  0  0  0  0  0  0  0  0  0  0
  -21.9793   14.1834  -29.8507 C   0  0  0  0  0  0  0  0  0  0  0  0
  -21.8000   16.9391  -30.3165 C   0  0  0  0  0  0  0  0  0  0  0  0
  -18.7970   22.3625  -25.6569 C   0  0  0  0  0  0  0  0  0  0  0  0
  -17.3059   21.1457  -27.0475 C   0  0  0  0  0  0  0  0  0  0  0  0
  -16.4577   22.8460  -25.8004 C   0  0  0  0  0  0  0  0  0  0  0  0
  -21.0844   14.9728  -29.1526 C   0  0  0  0  0  0  0  0  0  0  0  0
  -21.0018   16.3302  -29.3563 C   0  0  0  0  0  0  0  0  0  0  0  0
  -18.6009   21.3198  -26.5579 C   0  0  0  0  0  0  0  0  0  0  0  0
  -17.7102   23.1259  -25.2767 C   0  0  0  0  0  0  0  0  0  0  0  0
  -22.4081   15.4141  -21.4316 C   0  0  0  0  0  0  0  0  0  0  0  0
  -21.5429   14.7358  -22.2046 C   0  0  0  0  0  0  0  0  0  0  0  0
  -20.8751   13.5699  -21.5643 C   0  0  0  0  0  0  0  0  0  0  0  0
  -22.2424   14.0510  -19.6448 C   0  0  0  0  0  0  0  0  0  0  0  0
  -21.2290   15.0578  -23.5839 C   0  0  0  0  0  0  0  0  0  0  0  0
  -22.0289   15.7471  -24.4195 C   0  0  0  0  0  0  0  0  0  0  0  0
  -21.7128   15.8738  -25.8625 C   0  0  0  0  0  0  0  0  0  0  0  0
  -19.4582   18.9731  -27.0813 C   0  0  0  0  0  0  0  0  0  0  0  0
  -20.1060   14.5040  -28.1336 C   0  0  0  0  0  0  0  0  0  0  0  0
  -19.9501   16.9445  -28.4800 C   0  0  2  0  0  0  0  0  0  0  0  0
  -19.7307   15.8186  -27.4394 C   0  0  1  0  0  0  0  0  0  0  0  0
  -22.6313   13.5642  -18.2741 C   0  0  0  0  0  0  0  0  0  0  0  0
  -19.7608   20.4623  -27.0158 C   0  0  0  0  0  0  0  0  0  0  0  0
  -16.2269   21.8606  -26.6829 N   0  0  0  0  0  0  0  0  0  0  0  0
  -22.8035   15.0961  -20.1600 N   0  0  0  0  0  0  0  0  0  0  0  0
  -21.2883   13.3113  -20.2929 N   0  0  0  0  0  0  0  0  0  0  0  0
  -20.3633   15.9665  -26.1275 N   0  0  0  0  0  0  0  0  0  0  0  0
  -20.2585   18.2881  -27.9834 N   0  0  0  0  0  0  0  0  0  0  0  0
  -20.0386   12.8813  -22.1296 O   0  0  0  0  0  0  0  0  0  0  0  0
  -22.6180   15.8885  -26.6811 O   0  0  0  0  0  0  0  0  0  0  0  0
  -18.5892   18.4558  -26.3943 O   0  0  0  0  0  0  0  0  0  0  0  0
  -17.9142   24.1539  -24.3714 O   0  0  0  0  0  0  0  0  0  0  0  0
  -23.5218   14.2011  -31.3277 H   0  0  0  0  0  0  0  0  0  0  0  0
  -23.3455   16.6171  -31.7689 H   0  0  0  0  0  0  0  0  0  0  0  0
  -22.0392   13.1136  -29.6747 H   0  0  0  0  0  0  0  0  0  0  0  0
  -21.7237   18.0012  -30.5233 H   0  0  0  0  0  0  0  0  0  0  0  0
  -19.7789   22.5815  -25.2487 H   0  0  0  0  0  0  0  0  0  0  0  0
  -17.0933   20.3748  -27.7794 H   0  0  0  0  0  0  0  0  0  0  0  0
  -15.5869   23.4222  -25.5117 H   0  0  0  0  0  0  0  0  0  0  0  0
  -22.9053   16.2954  -21.8216 H   0  0  0  0  0  0  0  0  0  0  0  0
  -20.3065   14.6182  -23.9525 H   0  0  0  0  0  0  0  0  0  0  0  0
  -23.0019   16.1212  -24.1304 H   0  0  0  0  0  0  0  0  0  0  0  0
  -20.5370   13.7623  -27.4514 H   0  0  0  0  0  0  0  0  0  0  0  0
  -19.2412   14.0648  -28.6449 H   0  0  0  0  0  0  0  0  0  0  0  0
  -19.0413   17.0437  -29.0864 H   0  0  0  0  0  0  0  0  0  0  0  0
  -18.6765   15.7801  -27.1861 H   0  0  0  0  0  0  0  0  0  0  0  0
  -21.8612   12.9128  -17.8520 H   0  0  0  0  0  0  0  0  0  0  0  0
  -23.5644   12.9985  -18.3529 H   0  0  0  0  0  0  0  0  0  0  0  0
  -22.7928   14.4172  -17.6083 H   0  0  0  0  0  0  0  0  0  0  0  0
  -20.6108   20.5838  -26.3357 H   0  0  0  0  0  0  0  0  0  0  0  0
  -20.0800   20.8149  -28.0031 H   0  0  0  0  0  0  0  0  0  0  0  0
  -20.8623   12.5149  -19.8377 H   0  0  0  0  0  0  0  0  0  0  0  0
  -19.7338   16.1505  -25.3534 H   0  0  0  0  0  0  0  0  0  0  0  0
  -21.0220   18.7849  -28.4272 H   0  0  0  0  0  0  0  0  0  0  0  0
  -17.0510   24.5419  -24.1355 H   0  0  0  0  0  0  0  0  0  0  0  0
  1 34  1  0  0  0  0
  1  2  1  0  0  0  0
  1  3  2  0  0  0  0
  2 35  1  0  0  0  0
  2  4  2  0  0  0  0
  3  8  1  0  0  0  0
  3 36  1  0  0  0  0
  4 37  1  0  0  0  0
  4  9  1  0  0  0  0
  5 10  1  0  0  0  0
  5 38  1  0  0  0  0
  5 11  2  0  0  0  0
  6 25  1  0  0  0  0
  6 39  1  0  0  0  0
  6 10  2  0  0  0  0
  7 11  1  0  0  0  0
  7 40  1  0  0  0  0
  7 25  2  0  0  0  0
  8 20  1  0  0  0  0
  8  9  2  0  0  0  0
 21  9  1  0  0  0  0
 10 24  1  0  0  0  0
 11 33  1  0  0  0  0
 12 13  2  0  0  0  0
 12 41  1  0  0  0  0
 12 26  1  0  0  0  0
 13 16  1  0  0  0  0
 13 14  1  0  0  0  0
 14 27  1  0  0  0  0
 14 30  2  0  0  0  0
 15 26  2  0  0  0  0
 15 23  1  0  0  0  0
 15 27  1  0  0  0  0
 16 17  2  0  0  0  0
 16 42  1  0  0  0  0
 17 18  1  0  0  0  0
 17 43  1  0  0  0  0
 18 28  1  0  0  0  0
 18 31  2  0  0  0  0
 19 29  1  0  0  0  0
 19 32  2  0  0  0  0
 19 24  1  0  0  0  0
 22 20  1  0  0  0  0
 20 44  1  0  0  0  0
 20 45  1  0  0  0  0
 21 46  1  0  0  0  0
 21 29  1  0  0  0  0
 21 22  1  0  0  0  0
 22 47  1  0  0  0  0
 22 28  1  0  0  0  0
 23 48  1  0  0  0  0
 23 49  1  0  0  0  0
 23 50  1  0  0  0  0
 24 51  1  0  0  0  0
 24 52  1  0  0  0  0
 27 53  1  0  0  0  0
 28 54  1  0  0  0  0
 29 55  1  0  0  0  0
 33 56  1  0  0  0  0
M  ZZC   1 c1
M  ZZC   2 c2
M  ZZC   3 c3
M  ZZC   4 c4
M  ZZC   5 c5
M  ZZC   6 c6
M  ZZC   7 c7
M  ZZC   8 c8
M  ZZC   9 c9
M  ZZC  10 c10
M  ZZC  11 c11
M  ZZC  12 c12
M  ZZC  13 c13
M  ZZC  14 c14
M  ZZC  15 c15
M  ZZC  16 c16
M  ZZC  17 c17
M  ZZC  18 c18
M  ZZC  19 c19
M  ZZC  20 c20
M  ZZC  21 c21
M  ZZC  22 c22
M  ZZC  23 c23
M  ZZC  24 c24
M  ZZC  25 n1
M  ZZC  26 n2
M  ZZC  27 n3
M  ZZC  28 n4
M  ZZC  29 n5
M  ZZC  30 o1
M  ZZC  31 o2
M  ZZC  32 o3
M  ZZC  33 o4
M  ZZC  34 h1
M  ZZC  35 h2
M  ZZC  36 h3
M  ZZC  37 h4
M  ZZC  38 h5
M  ZZC  39 h6
M  ZZC  40 h7
M  ZZC  41 h8
M  ZZC  42 h9
M  ZZC  43 h10
M  ZZC  44 h11
M  ZZC  45 h12
M  ZZC  46 h13
M  ZZC  47 h14
M  ZZC  48 h15
M  ZZC  49 h16
M  ZZC  50 h17
M  ZZC  51 h18
M  ZZC  52 h19
M  ZZC  53 h20
M  ZZC  54 h21
M  ZZC  55 h22
M  ZZC  56 h23
M  ZZM   1 37
M  ZZI   1 125
M  ZZM   2 37
M  ZZI   2 125
M  ZZM   3 37
M  ZZI   3 125
M  ZZM   4 37
M  ZZI   4 125
M  ZZM   5 37
M  ZZI   5 125
M  ZZM   6 37
M  ZZI   6 125
M  ZZM   7 37
M  ZZI   7 125
M  ZZM   8 37
M  ZZI   8 124
M  ZZM   9 37
M  ZZI   9 124
M  ZZM  10 37
M  ZZI  10 124
M  ZZM  11 37
M  ZZI  11 124
M  ZZM  12 2
M  ZZI  12 120
M  ZZM  13 2
M  ZZI  13 120
M  ZZM  14 3
M  ZZI  14 121
M  ZZM  15 3
M  ZZI  15 121
M  ZZM  16 2
M  ZZI  16 120
M  ZZM  17 2
M  ZZI  17 120
M  ZZM  18 3
M  ZZI  18 121
M  ZZM  19 3
M  ZZI  19 121
M  ZZM  20 1
M  ZZI  20 112
M  ZZM  21 1
M  ZZI  21 113
M  ZZM  22 1
M  ZZI  22 113
M  ZZM  23 1
M  ZZI  23 111
M  ZZM  24 1
M  ZZI  24 112
M  ZZM  25 38
M  ZZI  25 223
M  ZZM  26 9
M  ZZI  26 220
M  ZZM  27 10
M  ZZI  27 191
M  ZZM  28 10
M  ZZI  28 211
M  ZZM  29 10
M  ZZI  29 211
M  ZZM  30 7
M  ZZI  30 81
M  ZZM  31 7
M  ZZI  31 81
M  ZZM  32 7
M  ZZI  32 81
M  ZZM  33 6
M  ZZI  33 62
M  ZZM  34 5
M  ZZI  34 1
M  ZZM  35 5
M  ZZI  35 1
M  ZZM  36 5
M  ZZI  36 1
M  ZZM  37 5
M  ZZI  37 1
M  ZZM  38 5
M  ZZI  38 1
M  ZZM  39 5
M  ZZI  39 1
M  ZZM  40 5
M  ZZI  40 1
M  ZZM  41 5
M  ZZI  41 1
M  ZZM  42 5
M  ZZI  42 1
M  ZZM  43 5
M  ZZI  43 1
M  ZZM  44 5
M  ZZI  44 1
M  ZZM  45 5
M  ZZI  45 1
M  ZZM  46 5
M  ZZI  46 1
M  ZZM  47 5
M  ZZI  47 1
M  ZZM  48 5
M  ZZI  48 1
M  ZZM  49 5
M  ZZI  49 1
M  ZZM  50 5
M  ZZI  50 1
M  ZZM  51 5
M  ZZI  51 1
M  ZZM  52 5
M  ZZI  52 1
M  ZZM  53 28
M  ZZI  53 11
M  ZZM  54 28
M  ZZI  54 11
M  ZZM  55 28
M  ZZI  55 11
M  ZZM  56 29
M  ZZI  56 27
M  END
> <IX>
3

> <NAME>
9

> <Score>
-28.373261

> <Natom>
56

> <Nflex>
4

> <Hbond>
-7.31799

> <Hphob>
-6.871801

> <VwInt>
-39.904945

> <Dsolv>
21.534861

> <SolEl>
10.18006

> <Eintl>
15.633868

> <RecConf>
ND

> <projPath>
icm/

> <NAME_>
9

$$$$
20
  MOLSOFT 08042116543D

 55 58  0  0  1  0  0  0  0  0999 V2000
  -21.7234   13.0277  -29.1718 C   0  0  0  0  0  0  0  0  0  0  0  0
  -22.6355   13.4757  -28.2264 C   0  0  0  0  0  0  0  0  0  0  0  0
  -20.6562   13.8286  -29.5389 C   0  0  0  0  0  0  0  0  0  0  0  0
  -22.4958   14.7171  -27.6278 C   0  0  0  0  0  0  0  0  0  0  0  0
  -21.3807   15.4826  -21.9298 C   0  0  0  0  0  0  0  0  0  0  0  0
  -20.5491   13.3801  -21.2166 C   0  0  0  0  0  0  0  0  0  0  0  0
  -19.5208   14.4044  -22.9547 C   0  0  0  0  0  0  0  0  0  0  0  0
  -20.5456   15.0792  -28.9578 C   0  0  0  0  0  0  0  0  0  0  0  0
  -21.4300   15.5150  -28.0076 C   0  0  0  0  0  0  0  0  0  0  0  0
  -21.4708   14.4031  -21.0631 C   0  0  0  0  0  0  0  0  0  0  0  0
  -20.3664   15.5053  -22.8803 C   0  0  0  0  0  0  0  0  0  0  0  0
  -18.2896   23.4753  -24.6070 C   0  0  0  0  0  0  0  0  0  0  0  0
  -17.1082   23.1477  -25.1433 C   0  0  0  0  0  0  0  0  0  0  0  0
  -19.5450   22.8411  -25.0567 C   0  0  0  0  0  0  0  0  0  0  0  0
  -16.9850   22.1214  -26.1981 C   0  0  0  0  0  0  0  0  0  0  0  0
  -21.0934   16.6927  -24.9985 C   0  0  0  0  0  0  0  0  0  0  0  0
  -19.4091   19.6303  -27.8292 C   0  0  0  0  0  0  0  0  0  0  0  0
  -19.4958   16.0953  -29.2161 C   0  0  0  0  0  0  0  0  0  0  0  0
  -21.0587   16.8699  -27.4865 C   0  0  2  0  0  0  0  0  0  0  0  0
  -20.1182   17.3614  -28.6174 C   0  0  1  0  0  0  0  0  0  0  0  0
  -22.5549   14.3079  -20.0320 C   0  0  0  0  0  0  0  0  0  0  0  0
  -20.1807   16.6893  -23.7901 C   0  0  0  0  0  0  0  0  0  0  0  0
  -18.2005   20.5552  -27.6966 C   0  0  0  0  0  0  0  0  0  0  0  0
  -19.5950   13.3307  -22.1548 N   0  0  0  0  0  0  0  0  0  0  0  0
  -19.4170   21.9047  -26.0553 N   0  0  0  0  0  0  0  0  0  0  0  0
  -18.1702   21.5110  -26.5847 N   0  0  0  0  0  0  0  0  0  0  0  0
  -20.3994   16.7726  -26.1918 N   0  0  0  0  0  0  0  0  0  0  0  0
  -19.0945   18.3462  -28.2507 N   0  0  0  0  0  0  0  0  0  0  0  0
  -20.6173   23.1441  -24.5575 O   0  0  0  0  0  0  0  0  0  0  0  0
  -15.8868   21.8516  -26.6622 O   0  0  0  0  0  0  0  0  0  0  0  0
  -22.3124   16.6515  -24.9033 O   0  0  0  0  0  0  0  0  0  0  0  0
  -20.5531   20.0164  -27.6324 O   0  0  0  0  0  0  0  0  0  0  0  0
  -21.8448   12.0481  -29.6234 H   0  0  0  0  0  0  0  0  0  0  0  0
  -23.4653   12.8438  -27.9442 H   0  0  0  0  0  0  0  0  0  0  0  0
  -19.9297   13.4839  -30.2664 H   0  0  0  0  0  0  0  0  0  0  0  0
  -23.2074   15.0538  -26.8802 H   0  0  0  0  0  0  0  0  0  0  0  0
  -22.0819   16.3091  -21.8539 H   0  0  0  0  0  0  0  0  0  0  0  0
  -20.5578   12.5350  -20.5431 H   0  0  0  0  0  0  0  0  0  0  0  0
  -18.7211   14.3629  -23.6869 H   0  0  0  0  0  0  0  0  0  0  0  0
  -18.3676   24.2257  -23.8288 H   0  0  0  0  0  0  0  0  0  0  0  0
  -16.1907   23.6197  -24.8135 H   0  0  0  0  0  0  0  0  0  0  0  0
  -18.5688   15.8034  -28.7182 H   0  0  0  0  0  0  0  0  0  0  0  0
  -19.3034   16.2168  -30.2824 H   0  0  0  0  0  0  0  0  0  0  0  0
  -21.9407   17.5146  -27.3933 H   0  0  0  0  0  0  0  0  0  0  0  0
  -20.7379   17.8335  -29.3918 H   0  0  0  0  0  0  0  0  0  0  0  0
  -23.3871   13.7083  -20.4143 H   0  0  0  0  0  0  0  0  0  0  0  0
  -22.1776   13.8413  -19.1166 H   0  0  0  0  0  0  0  0  0  0  0  0
  -22.9296   15.3001  -19.7626 H   0  0  0  0  0  0  0  0  0  0  0  0
  -20.3558   17.6172  -23.2349 H   0  0  0  0  0  0  0  0  0  0  0  0
  -19.1378   16.7325  -24.1152 H   0  0  0  0  0  0  0  0  0  0  0  0
  -17.2845   19.9621  -27.6377 H   0  0  0  0  0  0  0  0  0  0  0  0
  -18.1357   21.1472  -28.6151 H   0  0  0  0  0  0  0  0  0  0  0  0
  -20.2590   21.4517  -26.4055 H   0  0  0  0  0  0  0  0  0  0  0  0
  -19.3877   16.7483  -26.1875 H   0  0  0  0  0  0  0  0  0  0  0  0
  -18.1233   18.0996  -28.4302 H   0  0  0  0  0  0  0  0  0  0  0  0
  1 33  1  0  0  0  0
  1  2  1  0  0  0  0
  1  3  2  0  0  0  0
  2 34  1  0  0  0  0
  2  4  2  0  0  0  0
  3  8  1  0  0  0  0
  3 35  1  0  0  0  0
  4 36  1  0  0  0  0
  4  9  1  0  0  0  0
  5 11  2  0  0  0  0
  5 37  1  0  0  0  0
  5 10  1  0  0  0  0
  6 10  2  0  0  0  0
  6 38  1  0  0  0  0
  6 24  1  0  0  0  0
  7 24  2  0  0  0  0
  7 39  1  0  0  0  0
  7 11  1  0  0  0  0
  8 18  1  0  0  0  0
  8  9  2  0  0  0  0
 19  9  1  0  0  0  0
 10 21  1  0  0  0  0
 11 22  1  0  0  0  0
 12 13  2  0  0  0  0
 12 40  1  0  0  0  0
 12 14  1  0  0  0  0
 13 15  1  0  0  0  0
 13 41  1  0  0  0  0
 14 29  2  0  0  0  0
 14 25  1  0  0  0  0
 15 26  1  0  0  0  0
 15 30  2  0  0  0  0
 16 27  1  0  0  0  0
 16 31  2  0  0  0  0
 16 22  1  0  0  0  0
 17 28  1  0  0  0  0
 17 32  2  0  0  0  0
 17 23  1  0  0  0  0
 20 18  1  0  0  0  0
 18 42  1  0  0  0  0
 18 43  1  0  0  0  0
 19 44  1  0  0  0  0
 19 27  1  0  0  0  0
 19 20  1  0  0  0  0
 20 45  1  0  0  0  0
 20 28  1  0  0  0  0
 21 46  1  0  0  0  0
 21 47  1  0  0  0  0
 21 48  1  0  0  0  0
 22 49  1  0  0  0  0
 22 50  1  0  0  0  0
 23 51  1  0  0  0  0
 23 52  1  0  0  0  0
 23 26  1  0  0  0  0
 25 53  1  0  0  0  0
 25 26  1  0  0  0  0
 27 54  1  0  0  0  0
 28 55  1  0  0  0  0
M  ZZC   1 c1
M  ZZC   2 c2
M  ZZC   3 c3
M  ZZC   4 c4
M  ZZC   5 c5
M  ZZC   6 c6
M  ZZC   7 c7
M  ZZC   8 c8
M  ZZC   9 c9
M  ZZC  10 c10
M  ZZC  11 c11
M  ZZC  12 c12
M  ZZC  13 c13
M  ZZC  14 c14
M  ZZC  15 c15
M  ZZC  16 c16
M  ZZC  17 c17
M  ZZC  18 c18
M  ZZC  19 c19
M  ZZC  20 c20
M  ZZC  21 c21
M  ZZC  22 c22
M  ZZC  23 c23
M  ZZC  24 n1
M  ZZC  25 n2
M  ZZC  26 n3
M  ZZC  27 n4
M  ZZC  28 n5
M  ZZC  29 o1
M  ZZC  30 o2
M  ZZC  31 o3
M  ZZC  32 o4
M  ZZC  33 h1
M  ZZC  34 h2
M  ZZC  35 h3
M  ZZC  36 h4
M  ZZC  37 h5
M  ZZC  38 h6
M  ZZC  39 h7
M  ZZC  40 h8
M  ZZC  41 h9
M  ZZC  42 h10
M  ZZC  43 h11
M  ZZC  44 h12
M  ZZC  45 h13
M  ZZC  46 h14
M  ZZC  47 h15
M  ZZC  48 h16
M  ZZC  49 h17
M  ZZC  50 h18
M  ZZC  51 h19
M  ZZC  52 h20
M  ZZC  53 h21
M  ZZC  54 h22
M  ZZC  55 h23
M  ZZM   1 37
M  ZZI   1 125
M  ZZM   2 37
M  ZZI   2 125
M  ZZM   3 37
M  ZZI   3 125
M  ZZM   4 37
M  ZZI   4 125
M  ZZM   5 37
M  ZZI   5 125
M  ZZM   6 37
M  ZZI   6 125
M  ZZM   7 37
M  ZZI   7 125
M  ZZM   8 37
M  ZZI   8 124
M  ZZM   9 37
M  ZZI   9 124
M  ZZM  10 37
M  ZZI  10 124
M  ZZM  11 37
M  ZZI  11 124
M  ZZM  12 2
M  ZZI  12 120
M  ZZM  13 2
M  ZZI  13 120
M  ZZM  14 3
M  ZZI  14 121
M  ZZM  15 3
M  ZZI  15 121
M  ZZM  16 3
M  ZZI  16 121
M  ZZM  17 3
M  ZZI  17 121
M  ZZM  18 1
M  ZZI  18 112
M  ZZM  19 1
M  ZZI  19 113
M  ZZM  20 1
M  ZZI  20 113
M  ZZM  21 1
M  ZZI  21 111
M  ZZM  22 1
M  ZZI  22 112
M  ZZM  23 1
M  ZZI  23 112
M  ZZM  24 38
M  ZZI  24 223
M  ZZM  25 10
M  ZZI  25 191
M  ZZM  26 10
M  ZZI  26 192
M  ZZM  27 10
M  ZZI  27 211
M  ZZM  28 10
M  ZZI  28 211
M  ZZM  29 7
M  ZZI  29 81
M  ZZM  30 7
M  ZZI  30 81
M  ZZM  31 7
M  ZZI  31 81
M  ZZM  32 7
M  ZZI  32 81
M  ZZM  33 5
M  ZZI  33 1
M  ZZM  34 5
M  ZZI  34 1
M  ZZM  35 5
M  ZZI  35 1
M  ZZM  36 5
M  ZZI  36 1
M  ZZM  37 5
M  ZZI  37 1
M  ZZM  38 5
M  ZZI  38 1
M  ZZM  39 5
M  ZZI  39 1
M  ZZM  40 5
M  ZZI  40 1
M  ZZM  41 5
M  ZZI  41 1
M  ZZM  42 5
M  ZZI  42 1
M  ZZM  43 5
M  ZZI  43 1
M  ZZM  44 5
M  ZZI  44 1
M  ZZM  45 5
M  ZZI  45 1
M  ZZM  46 5
M  ZZI  46 1
M  ZZM  47 5
M  ZZI  47 1
M  ZZM  48 5
M  ZZI  48 1
M  ZZM  49 5
M  ZZI  49 1
M  ZZM  50 5
M  ZZI  50 1
M  ZZM  51 5
M  ZZI  51 1
M  ZZM  52 5
M  ZZI  52 1
M  ZZM  53 28
M  ZZI  53 11
M  ZZM  54 28
M  ZZI  54 11
M  ZZM  55 28
M  ZZI  55 11
M  END
> <IX>
4

> <NAME>
20

> <Score>
-29.805966

> <Natom>
55

> <Nflex>
6

> <Hbond>
-6.160061

> <Hphob>
-6.94412

> <VwInt>
-37.255096

> <Dsolv>
16.314012

> <SolEl>
9.495163

> <Eintl>
9.307213

> <RecConf>
ND

> <projPath>
icm/

> <NAME_>
20

$$$$
21
  MOLSOFT 08042116553D

 51 53  0  0  1  0  0  0  0  0999 V2000
  -20.0741   13.5982  -20.6053 C   0  0  0  0  0  0  0  0  0  0  0  0
  -19.0513   13.8762  -21.4916 C   0  0  0  0  0  0  0  0  0  0  0  0
  -21.3426   14.0821  -20.8490 C   0  0  0  0  0  0  0  0  0  0  0  0
  -19.2925   14.6073  -22.6362 C   0  0  0  0  0  0  0  0  0  0  0  0
  -21.5880   14.8202  -21.9903 C   0  0  0  0  0  0  0  0  0  0  0  0
  -20.5751   15.0714  -22.9125 C   0  0  0  0  0  0  0  0  0  0  0  0
  -17.1731   21.0279  -26.7936 C   0  0  0  0  0  0  0  0  0  0  0  0
  -16.4203   22.9533  -25.9185 C   0  0  0  0  0  0  0  0  0  0  0  0
  -18.2968   20.9828  -26.0613 C   0  0  0  0  0  0  0  0  0  0  0  0
  -18.5452   22.1448  -25.1568 C   0  0  0  0  0  0  0  0  0  0  0  0
  -22.4674   16.6195  -31.0353 C   0  0  0  0  0  0  0  0  0  0  0  0
  -22.7754   14.4168  -30.7423 C   0  0  0  0  0  0  0  0  0  0  0  0
  -19.1925   19.8431  -26.1359 C   0  0  0  0  0  0  0  0  0  0  0  0
  -19.7599   19.2743  -25.0587 C   0  0  0  0  0  0  0  0  0  0  0  0
  -20.5397   18.0260  -25.2280 C   0  0  0  0  0  0  0  0  0  0  0  0
  -21.6692   14.0741  -27.4544 C   0  0  0  0  0  0  0  0  0  0  0  0
  -22.4978   16.4046  -29.5394 C   0  0  0  0  0  0  0  0  0  0  0  0
  -22.9431   14.2470  -28.2567 C   0  0  0  0  0  0  0  0  0  0  0  0
  -20.5355   14.9132  -25.4176 C   0  0  0  0  0  0  0  0  0  0  0  0
  -20.8896   15.7947  -24.1989 C   0  0  2  0  0  0  0  0  0  0  0  0
  -16.1890   21.9780  -26.7359 N   0  0  0  0  0  0  0  0  0  0  0  0
  -17.5393   23.0677  -25.1423 N   0  0  0  0  0  0  0  0  0  0  0  0
  -22.6206   15.4111  -31.6442 N   0  0  0  0  0  0  0  0  0  0  0  0
  -22.7332   14.9724  -29.5014 N   0  0  0  0  0  0  0  0  0  0  0  0
  -20.2506   17.1050  -24.2439 N   0  0  0  0  0  0  0  0  0  0  0  0
  -21.5520   15.0061  -26.4462 N   0  0  0  0  0  0  0  0  0  0  0  0
  -19.5608   22.2666  -24.4893 O   0  0  0  0  0  0  0  0  0  0  0  0
  -22.3270   17.6960  -31.5958 O   0  0  0  0  0  0  0  0  0  0  0  0
  -22.9412   13.2353  -30.9964 O   0  0  0  0  0  0  0  0  0  0  0  0
  -21.3157   17.8562  -26.1579 O   0  0  0  0  0  0  0  0  0  0  0  0
  -20.8382   13.2111  -27.6992 O   0  0  0  0  0  0  0  0  0  0  0  0
  -19.8811   13.0115  -19.7125 H   0  0  0  0  0  0  0  0  0  0  0  0
  -18.0523   13.5121  -21.2962 H   0  0  0  0  0  0  0  0  0  0  0  0
  -22.1461   13.8742  -20.1494 H   0  0  0  0  0  0  0  0  0  0  0  0
  -18.4718   14.7946  -23.3227 H   0  0  0  0  0  0  0  0  0  0  0  0
  -22.5933   15.1877  -22.1645 H   0  0  0  0  0  0  0  0  0  0  0  0
  -16.9535   20.2129  -27.4744 H   0  0  0  0  0  0  0  0  0  0  0  0
  -15.7067   23.7772  -25.7808 H   0  0  0  0  0  0  0  0  0  0  0  0
  -19.3132   19.3825  -27.1133 H   0  0  0  0  0  0  0  0  0  0  0  0
  -19.6124   19.6401  -24.0484 H   0  0  0  0  0  0  0  0  0  0  0  0
  -21.5312   16.6455  -29.0848 H   0  0  0  0  0  0  0  0  0  0  0  0
  -23.3314   16.9412  -29.0755 H   0  0  0  0  0  0  0  0  0  0  0  0
  -23.3379   13.2488  -28.4718 H   0  0  0  0  0  0  0  0  0  0  0  0
  -23.6928   14.7881  -27.6707 H   0  0  0  0  0  0  0  0  0  0  0  0
  -19.5786   15.1955  -25.8690 H   0  0  0  0  0  0  0  0  0  0  0  0
  -20.4661   13.8538  -25.1456 H   0  0  0  0  0  0  0  0  0  0  0  0
  -21.9683   15.9936  -24.2179 H   0  0  0  0  0  0  0  0  0  0  0  0
  -17.6415   23.8632  -24.5236 H   0  0  0  0  0  0  0  0  0  0  0  0
  -22.6149   15.2795  -32.6463 H   0  0  0  0  0  0  0  0  0  0  0  0
  -19.5681   17.3388  -23.5275 H   0  0  0  0  0  0  0  0  0  0  0  0
  -22.1164   15.8525  -26.4806 H   0  0  0  0  0  0  0  0  0  0  0  0
  1 32  1  0  0  0  0
  1  2  1  0  0  0  0
  1  3  2  0  0  0  0
  2 33  1  0  0  0  0
  2  4  2  0  0  0  0
  3  5  1  0  0  0  0
  3 34  1  0  0  0  0
  4 35  1  0  0  0  0
  4  6  1  0  0  0  0
  5  6  2  0  0  0  0
  5 36  1  0  0  0  0
 20  6  1  0  0  0  0
  7 21  1  0  0  0  0
  7 37  1  0  0  0  0
  7  9  2  0  0  0  0
  8 22  1  0  0  0  0
  8 38  1  0  0  0  0
  8 21  2  0  0  0  0
  9 13  1  0  0  0  0
  9 10  1  0  0  0  0
 10 27  2  0  0  0  0
 10 22  1  0  0  0  0
 11 23  1  0  0  0  0
 11 28  2  0  0  0  0
 11 17  1  0  0  0  0
 12 24  1  0  0  0  0
 12 29  2  0  0  0  0
 12 23  1  0  0  0  0
 13 14  2  0  0  0  0
 13 39  1  0  0  0  0
 14 15  1  0  0  0  0
 14 40  1  0  0  0  0
 15 25  1  0  0  0  0
 15 30  2  0  0  0  0
 16 26  1  0  0  0  0
 16 31  2  0  0  0  0
 16 18  1  0  0  0  0
 17 41  1  0  0  0  0
 17 42  1  0  0  0  0
 17 24  1  0  0  0  0
 18 43  1  0  0  0  0
 18 44  1  0  0  0  0
 18 24  1  0  0  0  0
 20 19  1  0  0  0  0
 19 45  1  0  0  0  0
 19 46  1  0  0  0  0
 19 26  1  0  0  0  0
 20 47  1  0  0  0  0
 20 25  1  0  0  0  0
 22 48  1  0  0  0  0
 23 49  1  0  0  0  0
 25 50  1  0  0  0  0
 26 51  1  0  0  0  0
M  ZZC   1 c1
M  ZZC   2 c2
M  ZZC   3 c3
M  ZZC   4 c4
M  ZZC   5 c5
M  ZZC   6 c6
M  ZZC   7 c7
M  ZZC   8 c8
M  ZZC   9 c9
M  ZZC  10 c10
M  ZZC  11 c11
M  ZZC  12 c12
M  ZZC  13 c13
M  ZZC  14 c14
M  ZZC  15 c15
M  ZZC  16 c16
M  ZZC  17 c17
M  ZZC  18 c18
M  ZZC  19 c19
M  ZZC  20 c20
M  ZZC  21 n1
M  ZZC  22 n2
M  ZZC  23 n3
M  ZZC  24 n4
M  ZZC  25 n5
M  ZZC  26 n6
M  ZZC  27 o1
M  ZZC  28 o2
M  ZZC  29 o3
M  ZZC  30 o4
M  ZZC  31 o5
M  ZZC  32 h1
M  ZZC  33 h2
M  ZZC  34 h3
M  ZZC  35 h4
M  ZZC  36 h5
M  ZZC  37 h6
M  ZZC  38 h7
M  ZZC  39 h8
M  ZZC  40 h9
M  ZZC  41 h10
M  ZZC  42 h11
M  ZZC  43 h12
M  ZZC  44 h13
M  ZZC  45 h14
M  ZZC  46 h15
M  ZZC  47 h16
M  ZZC  48 h17
M  ZZC  49 h18
M  ZZC  50 h19
M  ZZC  51 h20
M  ZZM   1 37
M  ZZI   1 125
M  ZZM   2 37
M  ZZI   2 125
M  ZZM   3 37
M  ZZI   3 125
M  ZZM   4 37
M  ZZI   4 125
M  ZZM   5 37
M  ZZI   5 125
M  ZZM   6 37
M  ZZI   6 124
M  ZZM   7 2
M  ZZI   7 120
M  ZZM   8 3
M  ZZI   8 121
M  ZZM   9 2
M  ZZI   9 120
M  ZZM  10 3
M  ZZI  10 121
M  ZZM  11 3
M  ZZI  11 121
M  ZZM  12 3
M  ZZI  12 121
M  ZZM  13 2
M  ZZI  13 120
M  ZZM  14 2
M  ZZI  14 120
M  ZZM  15 3
M  ZZI  15 121
M  ZZM  16 3
M  ZZI  16 121
M  ZZM  17 1
M  ZZI  17 112
M  ZZM  18 1
M  ZZI  18 112
M  ZZM  19 1
M  ZZI  19 112
M  ZZM  20 1
M  ZZI  20 113
M  ZZM  21 9
M  ZZI  21 220
M  ZZM  22 10
M  ZZI  22 191
M  ZZM  23 10
M  ZZI  23 191
M  ZZM  24 10
M  ZZI  24 192
M  ZZM  25 10
M  ZZI  25 211
M  ZZM  26 10
M  ZZI  26 211
M  ZZM  27 7
M  ZZI  27 81
M  ZZM  28 7
M  ZZI  28 81
M  ZZM  29 7
M  ZZI  29 81
M  ZZM  30 7
M  ZZI  30 81
M  ZZM  31 7
M  ZZI  31 81
M  ZZM  32 5
M  ZZI  32 1
M  ZZM  33 5
M  ZZI  33 1
M  ZZM  34 5
M  ZZI  34 1
M  ZZM  35 5
M  ZZI  35 1
M  ZZM  36 5
M  ZZI  36 1
M  ZZM  37 5
M  ZZI  37 1
M  ZZM  38 5
M  ZZI  38 1
M  ZZM  39 5
M  ZZI  39 1
M  ZZM  40 5
M  ZZI  40 1
M  ZZM  41 5
M  ZZI  41 1
M  ZZM  42 5
M  ZZI  42 1
M  ZZM  43 5
M  ZZI  43 1
M  ZZM  44 5
M  ZZI  44 1
M  ZZM  45 5
M  ZZI  45 1
M  ZZM  46 5
M  ZZI  46 1
M  ZZM  47 5
M  ZZI  47 1
M  ZZM  48 28
M  ZZI  48 11
M  ZZM  49 28
M  ZZI  49 11
M  ZZM  50 28
M  ZZI  50 11
M  ZZM  51 28
M  ZZI  51 11
M  END
> <IX>
5

> <NAME>
21

> <Score>
-36.453276

> <Natom>
51

> <Nflex>
6

> <Hbond>
-8.058966

> <Hphob>
-5.481163

> <VwInt>
-41.461081

> <Dsolv>
18.984121

> <SolEl>
8.578803

> <Eintl>
9.282114

> <RecConf>
ND

> <projPath>
icm/

> <NAME_>
21

$$$$
30
  MOLSOFT 08042116573D

 58 62  0  0  1  0  0  0  0  0999 V2000
  -20.6965   12.9117  -29.7897 C   0  0  0  0  0  0  0  0  0  0  0  0
  -21.9785   12.6384  -29.3619 C   0  0  0  0  0  0  0  0  0  0  0  0
  -19.9906   13.9809  -29.2747 C   0  0  0  0  0  0  0  0  0  0  0  0
  -22.5700   13.4498  -28.4159 C   0  0  0  0  0  0  0  0  0  0  0  0
  -19.9067   15.8977  -27.8158 C   0  0  0  0  0  0  0  0  0  0  0  0
  -20.5092   16.7217  -26.8851 C   0  0  0  0  0  0  0  0  0  0  0  0
  -22.4997   15.4054  -27.0031 C   0  0  0  0  0  0  0  0  0  0  0  0
  -18.5436   21.1062  -27.0384 C   0  0  0  0  0  0  0  0  0  0  0  0
  -20.5868   14.8075  -28.3332 C   0  0  0  0  0  0  0  0  0  0  0  0
  -21.8880   14.5487  -27.9087 C   0  0  0  0  0  0  0  0  0  0  0  0
  -21.8310   16.5170  -26.4955 C   0  0  0  0  0  0  0  0  0  0  0  0
  -18.0140   22.0735  -26.2171 C   0  0  0  0  0  0  0  0  0  0  0  0
  -19.8908   20.9920  -26.6337 C   0  0  0  0  0  0  0  0  0  0  0  0
  -20.4661   13.5875  -20.9784 C   0  0  0  0  0  0  0  0  0  0  0  0
  -21.5789   14.0672  -20.4123 C   0  0  0  0  0  0  0  0  0  0  0  0
  -18.8357   23.5919  -24.5786 C   0  0  0  0  0  0  0  0  0  0  0  0
  -17.6162   24.1156  -24.4544 C   0  0  0  0  0  0  0  0  0  0  0  0
  -16.6790   22.5691  -26.0774 C   0  0  0  0  0  0  0  0  0  0  0  0
  -19.5867   14.4195  -21.8172 C   0  0  0  0  0  0  0  0  0  0  0  0
  -22.0174   15.4601  -20.6210 C   0  0  0  0  0  0  0  0  0  0  0  0
  -20.8910   20.0523  -27.1092 C   0  0  0  0  0  0  0  0  0  0  0  0
  -22.4674   17.3878  -23.1034 C   0  0  0  0  0  0  0  0  0  0  0  0
  -21.5620   17.5593  -21.8948 C   0  0  0  0  0  0  0  0  0  0  0  0
  -22.9199   18.8160  -26.2799 C   0  0  0  0  0  0  0  0  0  0  0  0
  -22.5713   17.4774  -25.5881 C   0  0  2  0  0  0  0  0  0  0  0  0
  -20.1776   21.8634  -25.6512 N   0  0  0  0  0  0  0  0  0  0  0  0
  -19.0362   22.5546  -25.4479 N   0  0  0  0  0  0  0  0  0  0  0  0
  -16.5663   23.6065  -25.1790 N   0  0  0  0  0  0  0  0  0  0  0  0
  -19.9904   15.7212  -21.9842 N   0  0  0  0  0  0  0  0  0  0  0  0
  -21.1955   16.2198  -21.4424 N   0  0  0  0  0  0  0  0  0  0  0  0
  -21.8822   19.8316  -26.1734 N   0  0  0  0  0  0  0  0  0  0  0  0
  -21.8706   17.6651  -24.3190 N   0  0  0  0  0  0  0  0  0  0  0  0
  -15.7164   22.0990  -26.6620 O   0  0  0  0  0  0  0  0  0  0  0  0
  -18.5650   13.9562  -22.2971 O   0  0  0  0  0  0  0  0  0  0  0  0
  -23.0511   15.8522  -20.0995 O   0  0  0  0  0  0  0  0  0  0  0  0
  -20.8087   19.4950  -28.1944 O   0  0  0  0  0  0  0  0  0  0  0  0
  -23.6095   16.9640  -23.0089 O   0  0  0  0  0  0  0  0  0  0  0  0
  -20.2412   12.2820  -30.5362 H   0  0  0  0  0  0  0  0  0  0  0  0
  -22.5167   11.7862  -29.7630 H   0  0  0  0  0  0  0  0  0  0  0  0
  -18.9795   14.1701  -29.6240 H   0  0  0  0  0  0  0  0  0  0  0  0
  -23.5721   13.2150  -28.0816 H   0  0  0  0  0  0  0  0  0  0  0  0
  -18.9037   16.1305  -28.1561 H   0  0  0  0  0  0  0  0  0  0  0  0
  -19.9387   17.5584  -26.4992 H   0  0  0  0  0  0  0  0  0  0  0  0
  -23.5274   15.2163  -26.7051 H   0  0  0  0  0  0  0  0  0  0  0  0
  -18.0186   20.5250  -27.7854 H   0  0  0  0  0  0  0  0  0  0  0  0
  -20.1533   12.5676  -20.8142 H   0  0  0  0  0  0  0  0  0  0  0  0
  -22.2069   13.4429  -19.7875 H   0  0  0  0  0  0  0  0  0  0  0  0
  -19.6908   23.9411  -24.0124 H   0  0  0  0  0  0  0  0  0  0  0  0
  -17.3923   24.9295  -23.7708 H   0  0  0  0  0  0  0  0  0  0  0  0
  -20.6664   18.1452  -22.1302 H   0  0  0  0  0  0  0  0  0  0  0  0
  -22.1243   18.0761  -21.1103 H   0  0  0  0  0  0  0  0  0  0  0  0
  -23.1754   18.6670  -27.3348 H   0  0  0  0  0  0  0  0  0  0  0  0
  -23.7960   19.2523  -25.7890 H   0  0  0  0  0  0  0  0  0  0  0  0
  -23.5310   17.0030  -25.3586 H   0  0  0  0  0  0  0  0  0  0  0  0
  -15.6427   23.9885  -25.0196 H   0  0  0  0  0  0  0  0  0  0  0  0
  -19.3682   16.3625  -22.4672 H   0  0  0  0  0  0  0  0  0  0  0  0
  -21.8516   20.3986  -25.3301 H   0  0  0  0  0  0  0  0  0  0  0  0
  -20.9113   17.9914  -24.3473 H   0  0  0  0  0  0  0  0  0  0  0  0
  1 38  1  0  0  0  0
  1  2  1  0  0  0  0
  1  3  2  0  0  0  0
  2 39  1  0  0  0  0
  2  4  2  0  0  0  0
  3  9  1  0  0  0  0
  3 40  1  0  0  0  0
  4 41  1  0  0  0  0
  4 10  1  0  0  0  0
  5  6  2  0  0  0  0
  5 42  1  0  0  0  0
  5  9  1  0  0  0  0
  6 11  1  0  0  0  0
  6 43  1  0  0  0  0
  7 10  1  0  0  0  0
  7 44  1  0  0  0  0
  7 11  2  0  0  0  0
  8 13  1  0  0  0  0
  8 45  1  0  0  0  0
  8 12  2  0  0  0  0
  9 10  2  0  0  0  0
 25 11  1  0  0  0  0
 12 18  1  0  0  0  0
 12 27  1  0  0  0  0
 13 21  1  0  0  0  0
 13 26  2  0  0  0  0
 14 15  2  0  0  0  0
 14 46  1  0  0  0  0
 14 19  1  0  0  0  0
 15 20  1  0  0  0  0
 15 47  1  0  0  0  0
 16 17  2  0  0  0  0
 16 48  1  0  0  0  0
 16 27  1  0  0  0  0
 17 28  1  0  0  0  0
 17 49  1  0  0  0  0
 18 33  2  0  0  0  0
 18 28  1  0  0  0  0
 19 34  2  0  0  0  0
 19 29  1  0  0  0  0
 20 30  1  0  0  0  0
 20 35  2  0  0  0  0
 21 31  1  0  0  0  0
 21 36  2  0  0  0  0
 22 32  1  0  0  0  0
 22 37  2  0  0  0  0
 22 23  1  0  0  0  0
 23 50  1  0  0  0  0
 23 51  1  0  0  0  0
 23 30  1  0  0  0  0
 25 24  1  0  0  0  0
 24 52  1  0  0  0  0
 24 53  1  0  0  0  0
 24 31  1  0  0  0  0
 25 54  1  0  0  0  0
 25 32  1  0  0  0  0
 26 27  1  0  0  0  0
 28 55  1  0  0  0  0
 29 56  1  0  0  0  0
 29 30  1  0  0  0  0
 31 57  1  0  0  0  0
 32 58  1  0  0  0  0
M  ZZC   1 c1
M  ZZC   2 c2
M  ZZC   3 c3
M  ZZC   4 c4
M  ZZC   5 c5
M  ZZC   6 c6
M  ZZC   7 c7
M  ZZC   8 c8
M  ZZC   9 c9
M  ZZC  10 c10
M  ZZC  11 c11
M  ZZC  12 c12
M  ZZC  13 c13
M  ZZC  14 c14
M  ZZC  15 c15
M  ZZC  16 c16
M  ZZC  17 c17
M  ZZC  18 c18
M  ZZC  19 c19
M  ZZC  20 c20
M  ZZC  21 c21
M  ZZC  22 c22
M  ZZC  23 c23
M  ZZC  24 c24
M  ZZC  25 c25
M  ZZC  26 n1
M  ZZC  27 n2
M  ZZC  28 n3
M  ZZC  29 n4
M  ZZC  30 n5
M  ZZC  31 n6
M  ZZC  32 n7
M  ZZC  33 o1
M  ZZC  34 o2
M  ZZC  35 o3
M  ZZC  36 o4
M  ZZC  37 o5
M  ZZC  38 h1
M  ZZC  39 h2
M  ZZC  40 h3
M  ZZC  41 h4
M  ZZC  42 h5
M  ZZC  43 h6
M  ZZC  44 h7
M  ZZC  45 h8
M  ZZC  46 h9
M  ZZC  47 h10
M  ZZC  48 h11
M  ZZC  49 h12
M  ZZC  50 h13
M  ZZC  51 h14
M  ZZC  52 h15
M  ZZC  53 h16
M  ZZC  54 h17
M  ZZC  55 h18
M  ZZC  56 h19
M  ZZC  57 h20
M  ZZC  58 h21
M  ZZM   1 37
M  ZZI   1 125
M  ZZM   2 37
M  ZZI   2 125
M  ZZM   3 37
M  ZZI   3 125
M  ZZM   4 37
M  ZZI   4 125
M  ZZM   5 37
M  ZZI   5 125
M  ZZM   6 37
M  ZZI   6 125
M  ZZM   7 37
M  ZZI   7 125
M  ZZM   8 64
M  ZZI   8 105
M  ZZM   9 37
M  ZZI   9 124
M  ZZM  10 37
M  ZZI  10 124
M  ZZM  11 37
M  ZZI  11 124
M  ZZM  12 63
M  ZZI  12 104
M  ZZM  13 64
M  ZZI  13 105
M  ZZM  14 2
M  ZZI  14 120
M  ZZM  15 2
M  ZZI  15 120
M  ZZM  16 2
M  ZZI  16 120
M  ZZM  17 2
M  ZZI  17 120
M  ZZM  18 3
M  ZZI  18 121
M  ZZM  19 3
M  ZZI  19 121
M  ZZM  20 3
M  ZZI  20 121
M  ZZM  21 3
M  ZZI  21 121
M  ZZM  22 3
M  ZZI  22 121
M  ZZM  23 1
M  ZZI  23 112
M  ZZM  24 1
M  ZZI  24 112
M  ZZM  25 1
M  ZZI  25 113
M  ZZM  26 65
M  ZZI  26 207
M  ZZM  27 39
M  ZZI  27 215
M  ZZM  28 10
M  ZZI  28 191
M  ZZM  29 10
M  ZZI  29 191
M  ZZM  30 10
M  ZZI  30 192
M  ZZM  31 10
M  ZZI  31 211
M  ZZM  32 10
M  ZZI  32 211
M  ZZM  33 7
M  ZZI  33 81
M  ZZM  34 7
M  ZZI  34 81
M  ZZM  35 7
M  ZZI  35 81
M  ZZM  36 7
M  ZZI  36 81
M  ZZM  37 7
M  ZZI  37 81
M  ZZM  38 5
M  ZZI  38 1
M  ZZM  39 5
M  ZZI  39 1
M  ZZM  40 5
M  ZZI  40 1
M  ZZM  41 5
M  ZZI  41 1
M  ZZM  42 5
M  ZZI  42 1
M  ZZM  43 5
M  ZZI  43 1
M  ZZM  44 5
M  ZZI  44 1
M  ZZM  45 5
M  ZZI  45 1
M  ZZM  46 5
M  ZZI  46 1
M  ZZM  47 5
M  ZZI  47 1
M  ZZM  48 5
M  ZZI  48 1
M  ZZM  49 5
M  ZZI  49 1
M  ZZM  50 5
M  ZZI  50 1
M  ZZM  51 5
M  ZZI  51 1
M  ZZM  52 5
M  ZZI  52 1
M  ZZM  53 5
M  ZZI  53 1
M  ZZM  54 5
M  ZZI  54 1
M  ZZM  55 28
M  ZZI  55 11
M  ZZM  56 28
M  ZZI  56 11
M  ZZM  57 28
M  ZZI  57 11
M  ZZM  58 28
M  ZZI  58 11
M  END
> <IX>
6

> <NAME>
30

> <Score>
-30.47791

> <Natom>
58

> <Nflex>
6

> <Hbond>
-5.425427

> <Hphob>
-6.930976

> <VwInt>
-43.067399

> <Dsolv>
19.933652

> <SolEl>
8.853162

> <Eintl>
10.943745

> <RecConf>
ND

> <projPath>
icm/

> <NAME_>
30

$$$$
17
  MOLSOFT 08042116593D

 53 56  0  0  1  0  0  0  0  0999 V2000
  -25.7116   17.6119  -32.6884 C   0  0  0  0  0  0  0  0  0  0  0  0
  -24.9180   18.7437  -32.8054 C   0  0  0  0  0  0  0  0  0  0  0  0
  -25.2474   16.4993  -32.0065 C   0  0  0  0  0  0  0  0  0  0  0  0
  -23.6454   18.7693  -32.2584 C   0  0  0  0  0  0  0  0  0  0  0  0
  -23.9806   16.5399  -31.4487 C   0  0  0  0  0  0  0  0  0  0  0  0
  -23.1917   17.6489  -31.5809 C   0  0  0  0  0  0  0  0  0  0  0  0
  -17.4132   20.4980  -26.7207 C   0  0  0  0  0  0  0  0  0  0  0  0
  -20.0116   13.7439  -24.4954 C   0  0  0  0  0  0  0  0  0  0  0  0
  -18.6064   20.0030  -27.0529 C   0  0  0  0  0  0  0  0  0  0  0  0
  -19.3939   14.6307  -22.5272 C   0  0  0  0  0  0  0  0  0  0  0  0
  -20.2230   14.9145  -25.1184 C   0  0  0  0  0  0  0  0  0  0  0  0
  -16.9665   21.7568  -27.3164 C   0  0  0  0  0  0  0  0  0  0  0  0
  -19.9956   16.1362  -24.3017 C   0  0  0  0  0  0  0  0  0  0  0  0
  -19.0447   21.8058  -28.5835 C   0  0  0  0  0  0  0  0  0  0  0  0
  -20.7181   15.0387  -26.4781 C   0  0  0  0  0  0  0  0  0  0  0  0
  -20.3715   14.2383  -27.5036 C   0  0  0  0  0  0  0  0  0  0  0  0
  -20.9780   14.3667  -28.8565 C   0  0  0  0  0  0  0  0  0  0  0  0
  -20.5775   19.0313  -29.4605 C   0  0  0  0  0  0  0  0  0  0  0  0
  -23.3269   15.4949  -30.6122 C   0  0  0  0  0  0  0  0  0  0  0  0
  -21.8746   17.4848  -30.9013 C   0  0  2  0  0  0  0  0  0  0  0  0
  -21.8733   15.9811  -30.5324 C   0  0  1  0  0  0  0  0  0  0  0  0
  -20.7104   20.0153  -28.3082 C   0  0  0  0  0  0  0  0  0  0  0  0
  -19.5914   13.5498  -23.2048 N   0  0  0  0  0  0  0  0  0  0  0  0
  -19.5899   15.8904  -23.0206 N   0  0  0  0  0  0  0  0  0  0  0  0
  -17.8555   22.3372  -28.1676 N   0  0  0  0  0  0  0  0  0  0  0  0
  -19.4264   20.6292  -27.9610 N   0  0  0  0  0  0  0  0  0  0  0  0
  -21.2444   15.6634  -29.2512 N   0  0  0  0  0  0  0  0  0  0  0  0
  -21.7631   18.3860  -29.7608 N   0  0  0  0  0  0  0  0  0  0  0  0
  -15.8703   22.2166  -27.0460 O   0  0  0  0  0  0  0  0  0  0  0  0
  -20.1439   17.2626  -24.7537 O   0  0  0  0  0  0  0  0  0  0  0  0
  -19.6974   22.3626  -29.4519 O   0  0  0  0  0  0  0  0  0  0  0  0
  -21.1789   13.3701  -29.5338 O   0  0  0  0  0  0  0  0  0  0  0  0
  -19.5378   18.8336  -30.0726 O   0  0  0  0  0  0  0  0  0  0  0  0
  -26.7029   17.6007  -33.1299 H   0  0  0  0  0  0  0  0  0  0  0  0
  -25.2940   19.6112  -33.3390 H   0  0  0  0  0  0  0  0  0  0  0  0
  -25.8716   15.6191  -31.9173 H   0  0  0  0  0  0  0  0  0  0  0  0
  -23.0224   19.6537  -32.3510 H   0  0  0  0  0  0  0  0  0  0  0  0
  -16.7356   20.0301  -26.0294 H   0  0  0  0  0  0  0  0  0  0  0  0
  -20.1785   12.8282  -25.0428 H   0  0  0  0  0  0  0  0  0  0  0  0
  -18.9620   19.0710  -26.6220 H   0  0  0  0  0  0  0  0  0  0  0  0
  -19.0479   14.6039  -21.4823 H   0  0  0  0  0  0  0  0  0  0  0  0
  -21.4319   15.8428  -26.6276 H   0  0  0  0  0  0  0  0  0  0  0  0
  -19.7007   13.3964  -27.3765 H   0  0  0  0  0  0  0  0  0  0  0  0
  -23.7967   15.4544  -29.6239 H   0  0  0  0  0  0  0  0  0  0  0  0
  -23.3936   14.5049  -31.0765 H   0  0  0  0  0  0  0  0  0  0  0  0
  -21.0681   17.6994  -31.6099 H   0  0  0  0  0  0  0  0  0  0  0  0
  -21.3105   15.4441  -31.2975 H   0  0  0  0  0  0  0  0  0  0  0  0
  -21.4216   20.7932  -28.6069 H   0  0  0  0  0  0  0  0  0  0  0  0
  -21.1198   19.5021  -27.4305 H   0  0  0  0  0  0  0  0  0  0  0  0
  -19.3871   16.6935  -22.4392 H   0  0  0  0  0  0  0  0  0  0  0  0
  -17.5774   23.2206  -28.5681 H   0  0  0  0  0  0  0  0  0  0  0  0
  -20.9509   16.4372  -28.6669 H   0  0  0  0  0  0  0  0  0  0  0  0
  -22.6032   18.5884  -29.2277 H   0  0  0  0  0  0  0  0  0  0  0  0
  1 34  1  0  0  0  0
  1  2  1  0  0  0  0
  1  3  2  0  0  0  0
  2 35  1  0  0  0  0
  2  4  2  0  0  0  0
  3  5  1  0  0  0  0
  3 36  1  0  0  0  0
  4 37  1  0  0  0  0
  4  6  1  0  0  0  0
  5 19  1  0  0  0  0
  5  6  2  0  0  0  0
 20  6  1  0  0  0  0
  7 12  1  0  0  0  0
  7 38  1  0  0  0  0
  7  9  2  0  0  0  0
  8 23  1  0  0  0  0
  8 39  1  0  0  0  0
  8 11  2  0  0  0  0
  9 40  1  0  0  0  0
  9 26  1  0  0  0  0
 10 24  1  0  0  0  0
 10 41  1  0  0  0  0
 10 23  2  0  0  0  0
 11 15  1  0  0  0  0
 11 13  1  0  0  0  0
 12 25  1  0  0  0  0
 12 29  2  0  0  0  0
 13 30  2  0  0  0  0
 13 24  1  0  0  0  0
 14 26  1  0  0  0  0
 14 31  2  0  0  0  0
 14 25  1  0  0  0  0
 15 16  2  0  0  0  0
 15 42  1  0  0  0  0
 16 17  1  0  0  0  0
 16 43  1  0  0  0  0
 17 27  1  0  0  0  0
 17 32  2  0  0  0  0
 18 28  1  0  0  0  0
 18 33  2  0  0  0  0
 18 22  1  0  0  0  0
 21 19  1  0  0  0  0
 19 44  1  0  0  0  0
 19 45  1  0  0  0  0
 20 46  1  0  0  0  0
 20 28  1  0  0  0  0
 20 21  1  0  0  0  0
 21 47  1  0  0  0  0
 21 27  1  0  0  0  0
 22 48  1  0  0  0  0
 22 49  1  0  0  0  0
 22 26  1  0  0  0  0
 24 50  1  0  0  0  0
 25 51  1  0  0  0  0
 27 52  1  0  0  0  0
 28 53  1  0  0  0  0
M  ZZC   1 c1
M  ZZC   2 c2
M  ZZC   3 c3
M  ZZC   4 c4
M  ZZC   5 c5
M  ZZC   6 c6
M  ZZC   7 c7
M  ZZC   8 c8
M  ZZC   9 c9
M  ZZC  10 c10
M  ZZC  11 c11
M  ZZC  12 c12
M  ZZC  13 c13
M  ZZC  14 c14
M  ZZC  15 c15
M  ZZC  16 c16
M  ZZC  17 c17
M  ZZC  18 c18
M  ZZC  19 c19
M  ZZC  20 c20
M  ZZC  21 c21
M  ZZC  22 c22
M  ZZC  23 n1
M  ZZC  24 n2
M  ZZC  25 n3
M  ZZC  26 n4
M  ZZC  27 n5
M  ZZC  28 n6
M  ZZC  29 o1
M  ZZC  30 o2
M  ZZC  31 o3
M  ZZC  32 o4
M  ZZC  33 o5
M  ZZC  34 h1
M  ZZC  35 h2
M  ZZC  36 h3
M  ZZC  37 h4
M  ZZC  38 h5
M  ZZC  39 h6
M  ZZC  40 h7
M  ZZC  41 h8
M  ZZC  42 h9
M  ZZC  43 h10
M  ZZC  44 h11
M  ZZC  45 h12
M  ZZC  46 h13
M  ZZC  47 h14
M  ZZC  48 h15
M  ZZC  49 h16
M  ZZC  50 h17
M  ZZC  51 h18
M  ZZC  52 h19
M  ZZC  53 h20
M  ZZM   1 37
M  ZZI   1 125
M  ZZM   2 37
M  ZZI   2 125
M  ZZM   3 37
M  ZZI   3 125
M  ZZM   4 37
M  ZZI   4 125
M  ZZM   5 37
M  ZZI   5 124
M  ZZM   6 37
M  ZZI   6 124
M  ZZM   7 2
M  ZZI   7 120
M  ZZM   8 2
M  ZZI   8 120
M  ZZM   9 2
M  ZZI   9 120
M  ZZM  10 3
M  ZZI  10 121
M  ZZM  11 2
M  ZZI  11 120
M  ZZM  12 3
M  ZZI  12 121
M  ZZM  13 3
M  ZZI  13 121
M  ZZM  14 3
M  ZZI  14 121
M  ZZM  15 2
M  ZZI  15 120
M  ZZM  16 2
M  ZZI  16 120
M  ZZM  17 3
M  ZZI  17 121
M  ZZM  18 3
M  ZZI  18 121
M  ZZM  19 1
M  ZZI  19 112
M  ZZM  20 1
M  ZZI  20 113
M  ZZM  21 1
M  ZZI  21 113
M  ZZM  22 1
M  ZZI  22 112
M  ZZM  23 9
M  ZZI  23 220
M  ZZM  24 10
M  ZZI  24 191
M  ZZM  25 10
M  ZZI  25 191
M  ZZM  26 10
M  ZZI  26 192
M  ZZM  27 10
M  ZZI  27 211
M  ZZM  28 10
M  ZZI  28 211
M  ZZM  29 7
M  ZZI  29 81
M  ZZM  30 7
M  ZZI  30 81
M  ZZM  31 7
M  ZZI  31 81
M  ZZM  32 7
M  ZZI  32 81
M  ZZM  33 7
M  ZZI  33 81
M  ZZM  34 5
M  ZZI  34 1
M  ZZM  35 5
M  ZZI  35 1
M  ZZM  36 5
M  ZZI  36 1
M  ZZM  37 5
M  ZZI  37 1
M  ZZM  38 5
M  ZZI  38 1
M  ZZM  39 5
M  ZZI  39 1
M  ZZM  40 5
M  ZZI  40 1
M  ZZM  41 5
M  ZZI  41 1
M  ZZM  42 5
M  ZZI  42 1
M  ZZM  43 5
M  ZZI  43 1
M  ZZM  44 5
M  ZZI  44 1
M  ZZM  45 5
M  ZZI  45 1
M  ZZM  46 5
M  ZZI  46 1
M  ZZM  47 5
M  ZZI  47 1
M  ZZM  48 5
M  ZZI  48 1
M  ZZM  49 5
M  ZZI  49 1
M  ZZM  50 28
M  ZZI  50 11
M  ZZM  51 28
M  ZZI  51 11
M  ZZM  52 28
M  ZZI  52 11
M  ZZM  53 28
M  ZZI  53 11
M  END
> <IX>
7

> <NAME>
17

> <Score>
-27.452545

> <Natom>
53

> <Nflex>
4

> <Hbond>
-8.825335

> <Hphob>
-5.687258

> <VwInt>
-34.864064

> <Dsolv>
22.866081

> <SolEl>
17.589051

> <Eintl>
3.986243

> <RecConf>
ND

> <projPath>
icm/

> <NAME_>
17

$$$$
53
  MOLSOFT 08042117013D

 55 58  0  0  1  0  0  0  0  0999 V2000
  -23.5852   15.7106  -31.4607 C   0  0  0  0  0  0  0  0  0  0  0  0
  -22.9953   16.9575  -31.3201 C   0  0  0  0  0  0  0  0  0  0  0  0
  -23.0638   14.6081  -30.7998 C   0  0  0  0  0  0  0  0  0  0  0  0
  -21.8978   17.1269  -30.4915 C   0  0  0  0  0  0  0  0  0  0  0  0
  -21.9643   14.7869  -29.9824 C   0  0  0  0  0  0  0  0  0  0  0  0
  -21.4034   16.0265  -29.8041 C   0  0  0  0  0  0  0  0  0  0  0  0
  -20.4480   16.9258  -22.2193 C   0  0  0  0  0  0  0  0  0  0  0  0
  -20.6757   15.9879  -21.1671 C   0  0  0  0  0  0  0  0  0  0  0  0
  -19.3916   21.9363  -25.7488 C   0  0  0  0  0  0  0  0  0  0  0  0
  -20.1780   16.4840  -23.4459 C   0  0  0  0  0  0  0  0  0  0  0  0
  -18.1584   23.5095  -24.7125 C   0  0  0  0  0  0  0  0  0  0  0  0
  -18.3752   21.3996  -26.4444 C   0  0  0  0  0  0  0  0  0  0  0  0
  -20.5144   14.6681  -21.3311 C   0  0  0  0  0  0  0  0  0  0  0  0
  -17.0415   22.0390  -26.2426 C   0  0  0  0  0  0  0  0  0  0  0  0
  -20.0991   14.1798  -22.6950 C   0  0  0  0  0  0  0  0  0  0  0  0
  -18.5323   20.3211  -27.4062 C   0  0  0  0  0  0  0  0  0  0  0  0
  -19.3493   19.2610  -27.2607 C   0  0  0  0  0  0  0  0  0  0  0  0
  -19.4260   18.2296  -28.3351 C   0  0  0  0  0  0  0  0  0  0  0  0
  -21.4294   14.8836  -25.6770 C   0  0  0  0  0  0  0  0  0  0  0  0
  -21.2394   13.7473  -29.1924 C   0  0  0  0  0  0  0  0  0  0  0  0
  -20.2563   15.9457  -28.8410 C   0  0  2  0  0  0  0  0  0  0  0  0
  -20.6064   14.6241  -28.1076 C   0  0  1  0  0  0  0  0  0  0  0  0
  -20.0229   14.7003  -25.1101 C   0  0  0  0  0  0  0  0  0  0  0  0
  -19.3273   22.9781  -24.8615 N   0  0  0  0  0  0  0  0  0  0  0  0
  -17.0352   23.0878  -25.3662 N   0  0  0  0  0  0  0  0  0  0  0  0
  -20.0577   15.1361  -23.7105 N   0  0  0  0  0  0  0  0  0  0  0  0
  -20.7397   13.7193  -20.3496 N   0  0  0  0  0  0  0  0  0  0  0  0
  -20.1264   17.1022  -27.9582 N   0  0  0  0  0  0  0  0  0  0  0  0
  -21.5980   14.8230  -27.0415 N   0  0  0  0  0  0  0  0  0  0  0  0
  -16.0342   21.6331  -26.8009 O   0  0  0  0  0  0  0  0  0  0  0  0
  -19.8415   12.9942  -22.8543 O   0  0  0  0  0  0  0  0  0  0  0  0
  -18.9264   18.3826  -29.4390 O   0  0  0  0  0  0  0  0  0  0  0  0
  -22.4081   15.0899  -24.9756 O   0  0  0  0  0  0  0  0  0  0  0  0
  -24.4561   15.6060  -32.0996 H   0  0  0  0  0  0  0  0  0  0  0  0
  -23.4000   17.8076  -31.8598 H   0  0  0  0  0  0  0  0  0  0  0  0
  -23.5132   13.6292  -30.9087 H   0  0  0  0  0  0  0  0  0  0  0  0
  -21.4444   18.1069  -30.3888 H   0  0  0  0  0  0  0  0  0  0  0  0
  -20.5435   17.9851  -22.0082 H   0  0  0  0  0  0  0  0  0  0  0  0
  -21.0093   16.3974  -20.2244 H   0  0  0  0  0  0  0  0  0  0  0  0
  -20.3944   21.5428  -25.8777 H   0  0  0  0  0  0  0  0  0  0  0  0
  -20.0634   17.1730  -24.2767 H   0  0  0  0  0  0  0  0  0  0  0  0
  -17.9858   24.3578  -24.0295 H   0  0  0  0  0  0  0  0  0  0  0  0
  -17.9148   20.4074  -28.2947 H   0  0  0  0  0  0  0  0  0  0  0  0
  -19.9593   19.1217  -26.3759 H   0  0  0  0  0  0  0  0  0  0  0  0
  -21.9176   12.9883  -28.7855 H   0  0  0  0  0  0  0  0  0  0  0  0
  -20.4804   13.2642  -29.8185 H   0  0  0  0  0  0  0  0  0  0  0  0
  -19.3294   15.8306  -29.4171 H   0  0  0  0  0  0  0  0  0  0  0  0
  -19.7201   14.1505  -27.6727 H   0  0  0  0  0  0  0  0  0  0  0  0
  -19.7449   13.6446  -25.1894 H   0  0  0  0  0  0  0  0  0  0  0  0
  -19.2998   15.3085  -25.6604 H   0  0  0  0  0  0  0  0  0  0  0  0
  -16.1524   23.5493  -25.1863 H   0  0  0  0  0  0  0  0  0  0  0  0
  -20.6600   12.7271  -20.5812 H   0  0  0  0  0  0  0  0  0  0  0  0
  -21.1209   13.9930  -19.4475 H   0  0  0  0  0  0  0  0  0  0  0  0
  -20.6236   17.0861  -27.0763 H   0  0  0  0  0  0  0  0  0  0  0  0
  -22.5616   14.9740  -27.3262 H   0  0  0  0  0  0  0  0  0  0  0  0
  1 34  1  0  0  0  0
  1  2  1  0  0  0  0
  1  3  2  0  0  0  0
  2 35  1  0  0  0  0
  2  4  2  0  0  0  0
  3  5  1  0  0  0  0
  3 36  1  0  0  0  0
  4 37  1  0  0  0  0
  4  6  1  0  0  0  0
  5 20  1  0  0  0  0
  5  6  2  0  0  0  0
 21  6  1  0  0  0  0
  7 10  2  0  0  0  0
  7 38  1  0  0  0  0
  7  8  1  0  0  0  0
  8 39  1  0  0  0  0
  8 13  2  0  0  0  0
  9 24  1  0  0  0  0
  9 40  1  0  0  0  0
  9 12  2  0  0  0  0
 10 26  1  0  0  0  0
 10 41  1  0  0  0  0
 11 25  1  0  0  0  0
 11 42  1  0  0  0  0
 11 24  2  0  0  0  0
 12 16  1  0  0  0  0
 12 14  1  0  0  0  0
 13 15  1  0  0  0  0
 13 27  1  0  0  0  0
 14 30  2  0  0  0  0
 14 25  1  0  0  0  0
 15 31  2  0  0  0  0
 15 26  1  0  0  0  0
 16 17  2  0  0  0  0
 16 43  1  0  0  0  0
 17 18  1  0  0  0  0
 17 44  1  0  0  0  0
 18 28  1  0  0  0  0
 18 32  2  0  0  0  0
 19 29  1  0  0  0  0
 19 33  2  0  0  0  0
 19 23  1  0  0  0  0
 22 20  1  0  0  0  0
 20 45  1  0  0  0  0
 20 46  1  0  0  0  0
 21 47  1  0  0  0  0
 21 22  1  0  0  0  0
 21 28  1  0  0  0  0
 22 48  1  0  0  0  0
 22 29  1  0  0  0  0
 23 49  1  0  0  0  0
 23 50  1  0  0  0  0
 23 26  1  0  0  0  0
 25 51  1  0  0  0  0
 27 52  1  0  0  0  0
 27 53  1  0  0  0  0
 28 54  1  0  0  0  0
 29 55  1  0  0  0  0
M  ZZC   1 c1
M  ZZC   2 c2
M  ZZC   3 c3
M  ZZC   4 c4
M  ZZC   5 c5
M  ZZC   6 c6
M  ZZC   7 c7
M  ZZC   8 c8
M  ZZC   9 c9
M  ZZC  10 c10
M  ZZC  11 c11
M  ZZC  12 c12
M  ZZC  13 c13
M  ZZC  14 c14
M  ZZC  15 c15
M  ZZC  16 c16
M  ZZC  17 c17
M  ZZC  18 c18
M  ZZC  19 c19
M  ZZC  20 c20
M  ZZC  21 c21
M  ZZC  22 c22
M  ZZC  23 c23
M  ZZC  24 n1
M  ZZC  25 n2
M  ZZC  26 n3
M  ZZC  27 n4
M  ZZC  28 n5
M  ZZC  29 n6
M  ZZC  30 o1
M  ZZC  31 o2
M  ZZC  32 o3
M  ZZC  33 o4
M  ZZC  34 h1
M  ZZC  35 h2
M  ZZC  36 h3
M  ZZC  37 h4
M  ZZC  38 h5
M  ZZC  39 h6
M  ZZC  40 h7
M  ZZC  41 h8
M  ZZC  42 h9
M  ZZC  43 h10
M  ZZC  44 h11
M  ZZC  45 h12
M  ZZC  46 h13
M  ZZC  47 h14
M  ZZC  48 h15
M  ZZC  49 h16
M  ZZC  50 h17
M  ZZC  51 h18
M  ZZC  52 h19
M  ZZC  53 h20
M  ZZC  54 h21
M  ZZC  55 h22
M  ZZM   1 37
M  ZZI   1 125
M  ZZM   2 37
M  ZZI   2 125
M  ZZM   3 37
M  ZZI   3 125
M  ZZM   4 37
M  ZZI   4 125
M  ZZM   5 37
M  ZZI   5 124
M  ZZM   6 37
M  ZZI   6 124
M  ZZM   7 2
M  ZZI   7 120
M  ZZM   8 2
M  ZZI   8 120
M  ZZM   9 2
M  ZZI   9 120
M  ZZM  10 2
M  ZZI  10 120
M  ZZM  11 3
M  ZZI  11 121
M  ZZM  12 2
M  ZZI  12 120
M  ZZM  13 2
M  ZZI  13 120
M  ZZM  14 3
M  ZZI  14 121
M  ZZM  15 3
M  ZZI  15 121
M  ZZM  16 2
M  ZZI  16 120
M  ZZM  17 2
M  ZZI  17 120
M  ZZM  18 3
M  ZZI  18 121
M  ZZM  19 3
M  ZZI  19 121
M  ZZM  20 1
M  ZZI  20 112
M  ZZM  21 1
M  ZZI  21 113
M  ZZM  22 1
M  ZZI  22 113
M  ZZM  23 1
M  ZZI  23 112
M  ZZM  24 9
M  ZZI  24 220
M  ZZM  25 10
M  ZZI  25 191
M  ZZM  26 10
M  ZZI  26 192
M  ZZM  27 40
M  ZZI  27 224
M  ZZM  28 10
M  ZZI  28 211
M  ZZM  29 10
M  ZZI  29 211
M  ZZM  30 7
M  ZZI  30 81
M  ZZM  31 7
M  ZZI  31 81
M  ZZM  32 7
M  ZZI  32 81
M  ZZM  33 7
M  ZZI  33 81
M  ZZM  34 5
M  ZZI  34 1
M  ZZM  35 5
M  ZZI  35 1
M  ZZM  36 5
M  ZZI  36 1
M  ZZM  37 5
M  ZZI  37 1
M  ZZM  38 5
M  ZZI  38 1
M  ZZM  39 5
M  ZZI  39 1
M  ZZM  40 5
M  ZZI  40 1
M  ZZM  41 5
M  ZZI  41 1
M  ZZM  42 5
M  ZZI  42 1
M  ZZM  43 5
M  ZZI  43 1
M  ZZM  44 5
M  ZZI  44 1
M  ZZM  45 5
M  ZZI  45 1
M  ZZM  46 5
M  ZZI  46 1
M  ZZM  47 5
M  ZZI  47 1
M  ZZM  48 5
M  ZZI  48 1
M  ZZM  49 5
M  ZZI  49 1
M  ZZM  50 5
M  ZZI  50 1
M  ZZM  51 28
M  ZZI  51 11
M  ZZM  52 28
M  ZZI  52 11
M  ZZM  53 28
M  ZZI  53 11
M  ZZM  54 28
M  ZZI  54 11
M  ZZM  55 28
M  ZZI  55 11
M  END
> <IX>
8

> <NAME>
53

> <Score>
-28.513966

> <Natom>
55

> <Nflex>
4

> <Hbond>
-5.808058

> <Hphob>
-5.9284

> <VwInt>
-44.023274

> <Dsolv>
21.514793

> <SolEl>
11.147338

> <Eintl>
13.803973

> <RecConf>
ND

> <projPath>
icm/

> <NAME_>
53

$$$$
23
  MOLSOFT 08042117033D

 55 58  0  0  1  0  0  0  0  0999 V2000
  -23.6808   15.5654  -31.2212 C   0  0  0  0  0  0  0  0  0  0  0  0
  -22.8507   16.6381  -31.5098 C   0  0  0  0  0  0  0  0  0  0  0  0
  -17.9211   23.1489  -25.4127 C   0  0  0  0  0  0  0  0  0  0  0  0
  -18.8069   22.1649  -25.8187 C   0  0  0  0  0  0  0  0  0  0  0  0
  -23.2868   14.5950  -30.3101 C   0  0  0  0  0  0  0  0  0  0  0  0
  -21.6164   16.7551  -30.8925 C   0  0  0  0  0  0  0  0  0  0  0  0
  -16.5958   23.0518  -25.7903 C   0  0  0  0  0  0  0  0  0  0  0  0
  -16.9895   21.1298  -26.9280 C   0  0  0  0  0  0  0  0  0  0  0  0
  -18.3436   21.1095  -26.5981 C   0  0  0  0  0  0  0  0  0  0  0  0
  -22.0629   14.7342  -29.6826 C   0  0  0  0  0  0  0  0  0  0  0  0
  -21.2349   15.7876  -29.9738 C   0  0  0  0  0  0  0  0  0  0  0  0
  -19.4938   13.9658  -21.5167 C   0  0  0  0  0  0  0  0  0  0  0  0
  -20.6881   13.8944  -20.7351 C   0  0  0  0  0  0  0  0  0  0  0  0
  -19.5092   14.5887  -22.6931 C   0  0  0  0  0  0  0  0  0  0  0  0
  -21.8277   14.4848  -21.1177 C   0  0  0  0  0  0  0  0  0  0  0  0
  -21.8348   15.2352  -22.4321 C   0  0  0  0  0  0  0  0  0  0  0  0
  -19.2633   20.0227  -26.9888 C   0  0  0  0  0  0  0  0  0  0  0  0
  -18.9313   19.0172  -27.8186 C   0  0  0  0  0  0  0  0  0  0  0  0
  -19.8844   17.9207  -28.1221 C   0  0  0  0  0  0  0  0  0  0  0  0
  -20.4655   14.7763  -25.6340 C   0  0  0  0  0  0  0  0  0  0  0  0
  -21.4482   13.8007  -28.6927 C   0  0  0  0  0  0  0  0  0  0  0  0
  -19.9369   15.6519  -29.2417 C   0  0  2  0  0  0  0  0  0  0  0  0
  -20.3085   14.6537  -28.1184 C   0  0  1  0  0  0  0  0  0  0  0  0
  -20.6286   15.7948  -24.5098 C   0  0  0  0  0  0  0  0  0  0  0  0
  -16.1011   22.0587  -26.5438 N   0  0  0  0  0  0  0  0  0  0  0  0
  -20.6550   15.1859  -23.1757 N   0  0  0  0  0  0  0  0  0  0  0  0
  -22.9994   14.4402  -20.3856 N   0  0  0  0  0  0  0  0  0  0  0  0
  -19.2846   16.8988  -28.8355 N   0  0  0  0  0  0  0  0  0  0  0  0
  -20.7091   15.3165  -26.8777 N   0  0  0  0  0  0  0  0  0  0  0  0
  -22.8426   15.8338  -22.7939 O   0  0  0  0  0  0  0  0  0  0  0  0
  -21.0456   17.9440  -27.7406 O   0  0  0  0  0  0  0  0  0  0  0  0
  -20.0816   13.6278  -25.4702 O   0  0  0  0  0  0  0  0  0  0  0  0
  -24.6393   15.4897  -31.7243 H   0  0  0  0  0  0  0  0  0  0  0  0
  -23.1637   17.3822  -32.2350 H   0  0  0  0  0  0  0  0  0  0  0  0
  -18.2561   23.9797  -24.8005 H   0  0  0  0  0  0  0  0  0  0  0  0
  -19.8481   22.2269  -25.5170 H   0  0  0  0  0  0  0  0  0  0  0  0
  -23.9167   13.7400  -30.0957 H   0  0  0  0  0  0  0  0  0  0  0  0
  -20.9623   17.5858  -31.1358 H   0  0  0  0  0  0  0  0  0  0  0  0
  -15.8782   23.7994  -25.4726 H   0  0  0  0  0  0  0  0  0  0  0  0
  -16.5474   20.3508  -27.5329 H   0  0  0  0  0  0  0  0  0  0  0  0
  -18.5923   13.4951  -21.1439 H   0  0  0  0  0  0  0  0  0  0  0  0
  -20.6414   13.3348  -19.8073 H   0  0  0  0  0  0  0  0  0  0  0  0
  -18.6181   14.6351  -23.3130 H   0  0  0  0  0  0  0  0  0  0  0  0
  -20.2544   20.0532  -26.5451 H   0  0  0  0  0  0  0  0  0  0  0  0
  -17.9632   18.9463  -28.2873 H   0  0  0  0  0  0  0  0  0  0  0  0
  -22.1669   13.4787  -27.9302 H   0  0  0  0  0  0  0  0  0  0  0  0
  -21.0574   12.9234  -29.2216 H   0  0  0  0  0  0  0  0  0  0  0  0
  -19.2341   15.1590  -29.9228 H   0  0  0  0  0  0  0  0  0  0  0  0
  -19.4484   14.0204  -27.8709 H   0  0  0  0  0  0  0  0  0  0  0  0
  -19.7921   16.5018  -24.5527 H   0  0  0  0  0  0  0  0  0  0  0  0
  -21.5482   16.3629  -24.6839 H   0  0  0  0  0  0  0  0  0  0  0  0
  -23.8270   14.9142  -20.7469 H   0  0  0  0  0  0  0  0  0  0  0  0
  -23.0379   13.9239  -19.5084 H   0  0  0  0  0  0  0  0  0  0  0  0
  -18.2918   16.9659  -29.0352 H   0  0  0  0  0  0  0  0  0  0  0  0
  -21.1867   16.2130  -26.9491 H   0  0  0  0  0  0  0  0  0  0  0  0
  1 33  1  0  0  0  0
  1  2  1  0  0  0  0
  1  5  2  0  0  0  0
  2 34  1  0  0  0  0
  2  6  2  0  0  0  0
  3  4  2  0  0  0  0
  3 35  1  0  0  0  0
  3  7  1  0  0  0  0
  4  9  1  0  0  0  0
  4 36  1  0  0  0  0
  5 10  1  0  0  0  0
  5 37  1  0  0  0  0
  6 38  1  0  0  0  0
  6 11  1  0  0  0  0
  7 39  1  0  0  0  0
  7 25  2  0  0  0  0
  8 25  1  0  0  0  0
  8 40  1  0  0  0  0
  8  9  2  0  0  0  0
  9 17  1  0  0  0  0
 10 11  2  0  0  0  0
 10 21  1  0  0  0  0
 22 11  1  0  0  0  0
 12 14  2  0  0  0  0
 12 41  1  0  0  0  0
 12 13  1  0  0  0  0
 13 42  1  0  0  0  0
 13 15  2  0  0  0  0
 14 26  1  0  0  0  0
 14 43  1  0  0  0  0
 15 16  1  0  0  0  0
 15 27  1  0  0  0  0
 16 30  2  0  0  0  0
 16 26  1  0  0  0  0
 17 18  2  0  0  0  0
 17 44  1  0  0  0  0
 18 19  1  0  0  0  0
 18 45  1  0  0  0  0
 19 28  1  0  0  0  0
 19 31  2  0  0  0  0
 20 29  1  0  0  0  0
 20 32  2  0  0  0  0
 20 24  1  0  0  0  0
 21 46  1  0  0  0  0
 21 47  1  0  0  0  0
 23 21  1  0  0  0  0
 22 23  1  0  0  0  0
 22 48  1  0  0  0  0
 22 28  1  0  0  0  0
 23 49  1  0  0  0  0
 23 29  1  0  0  0  0
 24 50  1  0  0  0  0
 24 51  1  0  0  0  0
 24 26  1  0  0  0  0
 27 52  1  0  0  0  0
 27 53  1  0  0  0  0
 28 54  1  0  0  0  0
 29 55  1  0  0  0  0
M  ZZC   1 c1
M  ZZC   2 c2
M  ZZC   3 c3
M  ZZC   4 c4
M  ZZC   5 c5
M  ZZC   6 c6
M  ZZC   7 c7
M  ZZC   8 c8
M  ZZC   9 c9
M  ZZC  10 c10
M  ZZC  11 c11
M  ZZC  12 c12
M  ZZC  13 c13
M  ZZC  14 c14
M  ZZC  15 c15
M  ZZC  16 c16
M  ZZC  17 c17
M  ZZC  18 c18
M  ZZC  19 c19
M  ZZC  20 c20
M  ZZC  21 c21
M  ZZC  22 c22
M  ZZC  23 c23
M  ZZC  24 c24
M  ZZC  25 n1
M  ZZC  26 n2
M  ZZC  27 n3
M  ZZC  28 n4
M  ZZC  29 n5
M  ZZC  30 o1
M  ZZC  31 o2
M  ZZC  32 o3
M  ZZC  33 h1
M  ZZC  34 h2
M  ZZC  35 h3
M  ZZC  36 h4
M  ZZC  37 h5
M  ZZC  38 h6
M  ZZC  39 h7
M  ZZC  40 h8
M  ZZC  41 h9
M  ZZC  42 h10
M  ZZC  43 h11
M  ZZC  44 h12
M  ZZC  45 h13
M  ZZC  46 h14
M  ZZC  47 h15
M  ZZC  48 h16
M  ZZC  49 h17
M  ZZC  50 h18
M  ZZC  51 h19
M  ZZC  52 h20
M  ZZC  53 h21
M  ZZC  54 h22
M  ZZC  55 h23
M  ZZM   1 37
M  ZZI   1 125
M  ZZM   2 37
M  ZZI   2 125
M  ZZM   3 37
M  ZZI   3 125
M  ZZM   4 37
M  ZZI   4 125
M  ZZM   5 37
M  ZZI   5 125
M  ZZM   6 37
M  ZZI   6 125
M  ZZM   7 37
M  ZZI   7 125
M  ZZM   8 37
M  ZZI   8 125
M  ZZM   9 37
M  ZZI   9 124
M  ZZM  10 37
M  ZZI  10 124
M  ZZM  11 37
M  ZZI  11 124
M  ZZM  12 2
M  ZZI  12 120
M  ZZM  13 2
M  ZZI  13 120
M  ZZM  14 2
M  ZZI  14 120
M  ZZM  15 2
M  ZZI  15 120
M  ZZM  16 3
M  ZZI  16 121
M  ZZM  17 2
M  ZZI  17 120
M  ZZM  18 2
M  ZZI  18 120
M  ZZM  19 3
M  ZZI  19 121
M  ZZM  20 3
M  ZZI  20 121
M  ZZM  21 1
M  ZZI  21 112
M  ZZM  22 1
M  ZZI  22 113
M  ZZM  23 1
M  ZZI  23 113
M  ZZM  24 1
M  ZZI  24 112
M  ZZM  25 38
M  ZZI  25 223
M  ZZM  26 10
M  ZZI  26 192
M  ZZM  27 40
M  ZZI  27 224
M  ZZM  28 10
M  ZZI  28 211
M  ZZM  29 10
M  ZZI  29 211
M  ZZM  30 7
M  ZZI  30 81
M  ZZM  31 7
M  ZZI  31 81
M  ZZM  32 7
M  ZZI  32 81
M  ZZM  33 5
M  ZZI  33 1
M  ZZM  34 5
M  ZZI  34 1
M  ZZM  35 5
M  ZZI  35 1
M  ZZM  36 5
M  ZZI  36 1
M  ZZM  37 5
M  ZZI  37 1
M  ZZM  38 5
M  ZZI  38 1
M  ZZM  39 5
M  ZZI  39 1
M  ZZM  40 5
M  ZZI  40 1
M  ZZM  41 5
M  ZZI  41 1
M  ZZM  42 5
M  ZZI  42 1
M  ZZM  43 5
M  ZZI  43 1
M  ZZM  44 5
M  ZZI  44 1
M  ZZM  45 5
M  ZZI  45 1
M  ZZM  46 5
M  ZZI  46 1
M  ZZM  47 5
M  ZZI  47 1
M  ZZM  48 5
M  ZZI  48 1
M  ZZM  49 5
M  ZZI  49 1
M  ZZM  50 5
M  ZZI  50 1
M  ZZM  51 5
M  ZZI  51 1
M  ZZM  52 28
M  ZZI  52 11
M  ZZM  53 28
M  ZZI  53 11
M  ZZM  54 28
M  ZZI  54 11
M  ZZM  55 28
M  ZZI  55 11
M  END
> <IX>
9

> <NAME>
23

> <Score>
-38.728977

> <Natom>
55

> <Nflex>
4

> <Hbond>
-6.11036

> <Hphob>
-7.405144

> <VwInt>
-44.976369

> <Dsolv>
14.632414

> <SolEl>
10.986597

> <Eintl>
10.070973

> <RecConf>
ND

> <projPath>
icm/

> <NAME_>
23

$$$$
50
  MOLSOFT 08042117043D

 54 57  0  0  1  0  0  0  0  0999 V2000
  -21.8980   12.6983  -29.4649 C   0  0  0  0  0  0  0  0  0  0  0  0
  -20.5580   12.9893  -29.6108 C   0  0  0  0  0  0  0  0  0  0  0  0
  -22.6909   13.5017  -28.6708 C   0  0  0  0  0  0  0  0  0  0  0  0
  -19.9952   14.0709  -28.9635 C   0  0  0  0  0  0  0  0  0  0  0  0
  -22.9253   15.4282  -27.2248 C   0  0  0  0  0  0  0  0  0  0  0  0
  -22.3670   16.5030  -26.5593 C   0  0  0  0  0  0  0  0  0  0  0  0
  -20.2343   15.9619  -27.4867 C   0  0  0  0  0  0  0  0  0  0  0  0
  -22.1434   14.5997  -28.0174 C   0  0  0  0  0  0  0  0  0  0  0  0
  -20.7864   14.8806  -28.1587 C   0  0  0  0  0  0  0  0  0  0  0  0
  -21.0017   16.7682  -26.6498 C   0  0  0  0  0  0  0  0  0  0  0  0
  -17.4451   23.9903  -24.7233 C   0  0  0  0  0  0  0  0  0  0  0  0
  -16.5418   23.3376  -25.4628 C   0  0  0  0  0  0  0  0  0  0  0  0
  -22.1996   15.0182  -21.1297 C   0  0  0  0  0  0  0  0  0  0  0  0
  -20.3246   14.4232  -22.5186 C   0  0  0  0  0  0  0  0  0  0  0  0
  -21.4687   15.3082  -22.2132 C   0  0  0  0  0  0  0  0  0  0  0  0
  -18.8872   23.7256  -24.8520 C   0  0  0  0  0  0  0  0  0  0  0  0
  -16.9277   22.3169  -26.4536 C   0  0  0  0  0  0  0  0  0  0  0  0
  -21.8020   13.8887  -20.2722 C   0  0  0  0  0  0  0  0  0  0  0  0
  -21.8778   16.4592  -23.0557 C   0  0  0  0  0  0  0  0  0  0  0  0
  -18.9663   19.8104  -26.5440 C   0  0  0  0  0  0  0  0  0  0  0  0
  -18.8554   21.0450  -27.4204 C   0  0  0  0  0  0  0  0  0  0  0  0
  -20.9347   18.2453  -24.5171 C   0  0  0  0  0  0  0  0  0  0  0  0
  -20.3104   17.8740  -25.8787 C   0  0  2  0  0  0  0  0  0  0  0  0
  -19.9491   13.4093  -21.8068 N   0  0  0  0  0  0  0  0  0  0  0  0
  -20.6816   13.1892  -20.6693 N   0  0  0  0  0  0  0  0  0  0  0  0
  -19.2366   22.7930  -25.7971 N   0  0  0  0  0  0  0  0  0  0  0  0
  -18.2931   22.1155  -26.5973 N   0  0  0  0  0  0  0  0  0  0  0  0
  -20.7995   17.1661  -23.5522 N   0  0  0  0  0  0  0  0  0  0  0  0
  -20.1089   19.0527  -26.7120 N   0  0  0  0  0  0  0  0  0  0  0  0
  -19.6954   24.3106  -24.1495 O   0  0  0  0  0  0  0  0  0  0  0  0
  -16.0606   21.7026  -27.0556 O   0  0  0  0  0  0  0  0  0  0  0  0
  -22.4473   13.6223  -19.2704 O   0  0  0  0  0  0  0  0  0  0  0  0
  -23.0578   16.7139  -23.2582 O   0  0  0  0  0  0  0  0  0  0  0  0
  -18.0950   19.4900  -25.7507 O   0  0  0  0  0  0  0  0  0  0  0  0
  -22.3234   11.8357  -29.9657 H   0  0  0  0  0  0  0  0  0  0  0  0
  -19.9426   12.3608  -30.2340 H   0  0  0  0  0  0  0  0  0  0  0  0
  -23.7390   13.2543  -28.5649 H   0  0  0  0  0  0  0  0  0  0  0  0
  -18.9354   14.2727  -29.0926 H   0  0  0  0  0  0  0  0  0  0  0  0
  -23.9869   15.2420  -27.1083 H   0  0  0  0  0  0  0  0  0  0  0  0
  -23.0225   17.1171  -25.9507 H   0  0  0  0  0  0  0  0  0  0  0  0
  -19.1761   16.1739  -27.6033 H   0  0  0  0  0  0  0  0  0  0  0  0
  -17.1495   24.7260  -23.9854 H   0  0  0  0  0  0  0  0  0  0  0  0
  -15.4829   23.5154  -25.3385 H   0  0  0  0  0  0  0  0  0  0  0  0
  -23.0708   15.5879  -20.8247 H   0  0  0  0  0  0  0  0  0  0  0  0
  -19.7704   14.6438  -23.4456 H   0  0  0  0  0  0  0  0  0  0  0  0
  -18.1798   20.8194  -28.2511 H   0  0  0  0  0  0  0  0  0  0  0  0
  -19.8283   21.3505  -27.8210 H   0  0  0  0  0  0  0  0  0  0  0  0
  -20.4066   19.1001  -24.0818 H   0  0  0  0  0  0  0  0  0  0  0  0
  -21.9828   18.5463  -24.6094 H   0  0  0  0  0  0  0  0  0  0  0  0
  -19.3142   17.4855  -25.6402 H   0  0  0  0  0  0  0  0  0  0  0  0
  -20.3916   12.4005  -20.1032 H   0  0  0  0  0  0  0  0  0  0  0  0
  -20.2204   22.5909  -25.9311 H   0  0  0  0  0  0  0  0  0  0  0  0
  -19.8626   16.9767  -23.2022 H   0  0  0  0  0  0  0  0  0  0  0  0
  -20.8174   19.3084  -27.3921 H   0  0  0  0  0  0  0  0  0  0  0  0
  1 35  1  0  0  0  0
  1  2  1  0  0  0  0
  1  3  2  0  0  0  0
  2 36  1  0  0  0  0
  2  4  2  0  0  0  0
  3  8  1  0  0  0  0
  3 37  1  0  0  0  0
  4 38  1  0  0  0  0
  4  9  1  0  0  0  0
  5  6  2  0  0  0  0
  5 39  1  0  0  0  0
  5  8  1  0  0  0  0
  6 10  1  0  0  0  0
  6 40  1  0  0  0  0
  7  9  1  0  0  0  0
  7 41  1  0  0  0  0
  7 10  2  0  0  0  0
  8  9  2  0  0  0  0
 23 10  1  0  0  0  0
 11 12  2  0  0  0  0
 11 42  1  0  0  0  0
 11 16  1  0  0  0  0
 12 17  1  0  0  0  0
 12 43  1  0  0  0  0
 13 15  2  0  0  0  0
 13 44  1  0  0  0  0
 13 18  1  0  0  0  0
 14 24  2  0  0  0  0
 14 45  1  0  0  0  0
 14 15  1  0  0  0  0
 15 19  1  0  0  0  0
 16 30  2  0  0  0  0
 16 26  1  0  0  0  0
 17 27  1  0  0  0  0
 17 31  2  0  0  0  0
 18 32  2  0  0  0  0
 18 25  1  0  0  0  0
 19 28  1  0  0  0  0
 19 33  2  0  0  0  0
 20 29  1  0  0  0  0
 20 34  2  0  0  0  0
 20 21  1  0  0  0  0
 21 46  1  0  0  0  0
 21 47  1  0  0  0  0
 21 27  1  0  0  0  0
 23 22  1  0  0  0  0
 22 48  1  0  0  0  0
 22 49  1  0  0  0  0
 22 28  1  0  0  0  0
 23 50  1  0  0  0  0
 23 29  1  0  0  0  0
 24 25  1  0  0  0  0
 25 51  1  0  0  0  0
 26 52  1  0  0  0  0
 26 27  1  0  0  0  0
 28 53  1  0  0  0  0
 29 54  1  0  0  0  0
M  ZZC   1 c1
M  ZZC   2 c2
M  ZZC   3 c3
M  ZZC   4 c4
M  ZZC   5 c5
M  ZZC   6 c6
M  ZZC   7 c7
M  ZZC   8 c8
M  ZZC   9 c9
M  ZZC  10 c10
M  ZZC  11 c11
M  ZZC  12 c12
M  ZZC  13 c13
M  ZZC  14 c14
M  ZZC  15 c15
M  ZZC  16 c16
M  ZZC  17 c17
M  ZZC  18 c18
M  ZZC  19 c19
M  ZZC  20 c20
M  ZZC  21 c21
M  ZZC  22 c22
M  ZZC  23 c23
M  ZZC  24 n1
M  ZZC  25 n2
M  ZZC  26 n3
M  ZZC  27 n4
M  ZZC  28 n5
M  ZZC  29 n6
M  ZZC  30 o1
M  ZZC  31 o2
M  ZZC  32 o3
M  ZZC  33 o4
M  ZZC  34 o5
M  ZZC  35 h1
M  ZZC  36 h2
M  ZZC  37 h3
M  ZZC  38 h4
M  ZZC  39 h5
M  ZZC  40 h6
M  ZZC  41 h7
M  ZZC  42 h8
M  ZZC  43 h9
M  ZZC  44 h10
M  ZZC  45 h11
M  ZZC  46 h12
M  ZZC  47 h13
M  ZZC  48 h14
M  ZZC  49 h15
M  ZZC  50 h16
M  ZZC  51 h17
M  ZZC  52 h18
M  ZZC  53 h19
M  ZZC  54 h20
M  ZZM   1 37
M  ZZI   1 125
M  ZZM   2 37
M  ZZI   2 125
M  ZZM   3 37
M  ZZI   3 125
M  ZZM   4 37
M  ZZI   4 125
M  ZZM   5 37
M  ZZI   5 125
M  ZZM   6 37
M  ZZI   6 125
M  ZZM   7 37
M  ZZI   7 125
M  ZZM   8 37
M  ZZI   8 124
M  ZZM   9 37
M  ZZI   9 124
M  ZZM  10 37
M  ZZI  10 124
M  ZZM  11 2
M  ZZI  11 120
M  ZZM  12 2
M  ZZI  12 120
M  ZZM  13 2
M  ZZI  13 120
M  ZZM  14 3
M  ZZI  14 121
M  ZZM  15 2
M  ZZI  15 120
M  ZZM  16 3
M  ZZI  16 121
M  ZZM  17 3
M  ZZI  17 121
M  ZZM  18 3
M  ZZI  18 121
M  ZZM  19 3
M  ZZI  19 121
M  ZZM  20 3
M  ZZI  20 121
M  ZZM  21 1
M  ZZI  21 112
M  ZZM  22 1
M  ZZI  22 112
M  ZZM  23 1
M  ZZI  23 113
M  ZZM  24 9
M  ZZI  24 220
M  ZZM  25 10
M  ZZI  25 191
M  ZZM  26 10
M  ZZI  26 191
M  ZZM  27 10
M  ZZI  27 192
M  ZZM  28 10
M  ZZI  28 211
M  ZZM  29 10
M  ZZI  29 211
M  ZZM  30 7
M  ZZI  30 81
M  ZZM  31 7
M  ZZI  31 81
M  ZZM  32 7
M  ZZI  32 81
M  ZZM  33 7
M  ZZI  33 81
M  ZZM  34 7
M  ZZI  34 81
M  ZZM  35 5
M  ZZI  35 1
M  ZZM  36 5
M  ZZI  36 1
M  ZZM  37 5
M  ZZI  37 1
M  ZZM  38 5
M  ZZI  38 1
M  ZZM  39 5
M  ZZI  39 1
M  ZZM  40 5
M  ZZI  40 1
M  ZZM  41 5
M  ZZI  41 1
M  ZZM  42 5
M  ZZI  42 1
M  ZZM  43 5
M  ZZI  43 1
M  ZZM  44 5
M  ZZI  44 1
M  ZZM  45 5
M  ZZI  45 1
M  ZZM  46 5
M  ZZI  46 1
M  ZZM  47 5
M  ZZI  47 1
M  ZZM  48 5
M  ZZI  48 1
M  ZZM  49 5
M  ZZI  49 1
M  ZZM  50 5
M  ZZI  50 1
M  ZZM  51 28
M  ZZI  51 11
M  ZZM  52 28
M  ZZI  52 11
M  ZZM  53 28
M  ZZI  53 11
M  ZZM  54 28
M  ZZI  54 11
M  END
> <IX>
10

> <NAME>
50

> <Score>
-38.675854

> <Natom>
54

> <Nflex>
6

> <Hbond>
-7.658036

> <Hphob>
-5.892937

> <VwInt>
-42.106086

> <Dsolv>
19.260543

> <SolEl>
6.955102

> <Eintl>
6.862594

> <RecConf>
ND

> <projPath>
icm/

> <NAME_>
50

$$$$
45
  MOLSOFT 08042117063D

 55 58  0  0  1  0  0  0  0  0999 V2000
  -22.0656   13.0316  -29.8368 C   0  0  0  0  0  0  0  0  0  0  0  0
  -22.9797   14.0624  -29.7405 C   0  0  0  0  0  0  0  0  0  0  0  0
  -21.0446   12.9239  -28.9182 C   0  0  0  0  0  0  0  0  0  0  0  0
  -22.8729   14.9843  -28.7133 C   0  0  0  0  0  0  0  0  0  0  0  0
  -19.9284   13.7143  -26.9355 C   0  0  0  0  0  0  0  0  0  0  0  0
  -19.8097   14.6389  -25.9186 C   0  0  0  0  0  0  0  0  0  0  0  0
  -21.7229   15.8082  -26.7459 C   0  0  0  0  0  0  0  0  0  0  0  0
  -20.9388   13.8326  -27.8757 C   0  0  0  0  0  0  0  0  0  0  0  0
  -21.8547   14.8761  -27.7710 C   0  0  0  0  0  0  0  0  0  0  0  0
  -20.6728   15.7234  -25.8298 C   0  0  0  0  0  0  0  0  0  0  0  0
  -21.8515   19.2422  -19.4472 C   0  0  0  0  0  0  0  0  0  0  0  0
  -21.3916   20.1829  -18.6113 C   0  0  0  0  0  0  0  0  0  0  0  0
  -17.2379   23.2771  -25.3799 C   0  0  0  0  0  0  0  0  0  0  0  0
  -18.4570   23.4415  -24.8520 C   0  0  0  0  0  0  0  0  0  0  0  0
  -20.1900   19.7791  -21.0913 C   0  0  0  0  0  0  0  0  0  0  0  0
  -21.2311   19.0159  -20.7274 C   0  0  0  0  0  0  0  0  0  0  0  0
  -20.2173   21.0077  -19.0007 C   0  0  0  0  0  0  0  0  0  0  0  0
  -16.9186   22.1224  -26.2421 C   0  0  0  0  0  0  0  0  0  0  0  0
  -19.5488   22.4700  -25.0792 C   0  0  0  0  0  0  0  0  0  0  0  0
  -21.8005   18.0251  -21.6908 C   0  0  0  0  0  0  0  0  0  0  0  0
  -19.6985   19.0015  -25.5475 C   0  0  0  0  0  0  0  0  0  0  0  0
  -20.1662   20.3039  -26.1836 C   0  0  0  0  0  0  0  0  0  0  0  0
  -21.2136   16.4115  -23.4731 C   0  0  0  0  0  0  0  0  0  0  0  0
  -20.4382   16.7599  -24.7523 C   0  0  2  0  0  0  0  0  0  0  0  0
  -19.6998   20.7435  -20.2484 N   0  0  0  0  0  0  0  0  0  0  0  0
  -17.9611   21.2691  -26.5105 N   0  0  0  0  0  0  0  0  0  0  0  0
  -19.2335   21.4027  -25.9077 N   0  0  0  0  0  0  0  0  0  0  0  0
  -20.8507   17.2958  -22.3766 N   0  0  0  0  0  0  0  0  0  0  0  0
  -20.7160   18.1152  -25.2344 N   0  0  0  0  0  0  0  0  0  0  0  0
  -19.7664   21.8561  -18.2477 O   0  0  0  0  0  0  0  0  0  0  0  0
  -15.7845   21.9586  -26.6614 O   0  0  0  0  0  0  0  0  0  0  0  0
  -20.6373   22.6433  -24.5505 O   0  0  0  0  0  0  0  0  0  0  0  0
  -23.0102   17.8950  -21.8233 O   0  0  0  0  0  0  0  0  0  0  0  0
  -18.5163   18.7381  -25.3867 O   0  0  0  0  0  0  0  0  0  0  0  0
  -22.1326   12.3053  -30.6350 H   0  0  0  0  0  0  0  0  0  0  0  0
  -23.7721   14.1555  -30.4755 H   0  0  0  0  0  0  0  0  0  0  0  0
  -20.3257   12.1233  -29.0317 H   0  0  0  0  0  0  0  0  0  0  0  0
  -23.5896   15.7971  -28.6587 H   0  0  0  0  0  0  0  0  0  0  0  0
  -19.2139   12.9017  -26.9899 H   0  0  0  0  0  0  0  0  0  0  0  0
  -19.0154   14.5148  -25.1912 H   0  0  0  0  0  0  0  0  0  0  0  0
  -22.4365   16.6236  -26.6773 H   0  0  0  0  0  0  0  0  0  0  0  0
  -22.7085   18.6368  -19.1691 H   0  0  0  0  0  0  0  0  0  0  0  0
  -21.8395   20.3701  -17.6428 H   0  0  0  0  0  0  0  0  0  0  0  0
  -16.4366   23.9800  -25.1892 H   0  0  0  0  0  0  0  0  0  0  0  0
  -18.6831   24.2920  -24.2196 H   0  0  0  0  0  0  0  0  0  0  0  0
  -19.6933   19.7078  -22.0548 H   0  0  0  0  0  0  0  0  0  0  0  0
  -20.2371   20.1667  -27.2680 H   0  0  0  0  0  0  0  0  0  0  0  0
  -21.1602   20.5636  -25.8054 H   0  0  0  0  0  0  0  0  0  0  0  0
  -22.2942   16.4564  -23.6481 H   0  0  0  0  0  0  0  0  0  0  0  0
  -20.9804   15.3936  -23.1423 H   0  0  0  0  0  0  0  0  0  0  0  0
  -19.3726   16.7341  -24.5004 H   0  0  0  0  0  0  0  0  0  0  0  0
  -18.9234   21.3217  -20.5494 H   0  0  0  0  0  0  0  0  0  0  0  0
  -17.7775   20.4406  -27.0699 H   0  0  0  0  0  0  0  0  0  0  0  0
  -19.8655   17.3734  -22.1328 H   0  0  0  0  0  0  0  0  0  0  0  0
  -21.6823   18.3903  -25.3742 H   0  0  0  0  0  0  0  0  0  0  0  0
  1 35  1  0  0  0  0
  1  2  1  0  0  0  0
  1  3  2  0  0  0  0
  2 36  1  0  0  0  0
  2  4  2  0  0  0  0
  3  8  1  0  0  0  0
  3 37  1  0  0  0  0
  4 38  1  0  0  0  0
  4  9  1  0  0  0  0
  5  6  2  0  0  0  0
  5 39  1  0  0  0  0
  5  8  1  0  0  0  0
  6 10  1  0  0  0  0
  6 40  1  0  0  0  0
  7  9  1  0  0  0  0
  7 41  1  0  0  0  0
  7 10  2  0  0  0  0
  8  9  2  0  0  0  0
 24 10  1  0  0  0  0
 11 16  1  0  0  0  0
 11 42  1  0  0  0  0
 11 12  2  0  0  0  0
 12 43  1  0  0  0  0
 12 17  1  0  0  0  0
 13 14  2  0  0  0  0
 13 44  1  0  0  0  0
 13 18  1  0  0  0  0
 14 19  1  0  0  0  0
 14 45  1  0  0  0  0
 15 25  1  0  0  0  0
 15 46  1  0  0  0  0
 15 16  2  0  0  0  0
 16 20  1  0  0  0  0
 17 30  2  0  0  0  0
 17 25  1  0  0  0  0
 18 31  2  0  0  0  0
 18 26  1  0  0  0  0
 19 27  1  0  0  0  0
 19 32  2  0  0  0  0
 20 28  1  0  0  0  0
 20 33  2  0  0  0  0
 21 29  1  0  0  0  0
 21 34  2  0  0  0  0
 21 22  1  0  0  0  0
 22 47  1  0  0  0  0
 22 48  1  0  0  0  0
 22 27  1  0  0  0  0
 24 23  1  0  0  0  0
 23 49  1  0  0  0  0
 23 50  1  0  0  0  0
 23 28  1  0  0  0  0
 24 51  1  0  0  0  0
 24 29  1  0  0  0  0
 25 52  1  0  0  0  0
 26 53  1  0  0  0  0
 26 27  1  0  0  0  0
 28 54  1  0  0  0  0
 29 55  1  0  0  0  0
M  ZZC   1 c1
M  ZZC   2 c2
M  ZZC   3 c3
M  ZZC   4 c4
M  ZZC   5 c5
M  ZZC   6 c6
M  ZZC   7 c7
M  ZZC   8 c8
M  ZZC   9 c9
M  ZZC  10 c10
M  ZZC  11 c11
M  ZZC  12 c12
M  ZZC  13 c13
M  ZZC  14 c14
M  ZZC  15 c15
M  ZZC  16 c16
M  ZZC  17 c17
M  ZZC  18 c18
M  ZZC  19 c19
M  ZZC  20 c20
M  ZZC  21 c21
M  ZZC  22 c22
M  ZZC  23 c23
M  ZZC  24 c24
M  ZZC  25 n1
M  ZZC  26 n2
M  ZZC  27 n3
M  ZZC  28 n4
M  ZZC  29 n5
M  ZZC  30 o1
M  ZZC  31 o2
M  ZZC  32 o3
M  ZZC  33 o4
M  ZZC  34 o5
M  ZZC  35 h1
M  ZZC  36 h2
M  ZZC  37 h3
M  ZZC  38 h4
M  ZZC  39 h5
M  ZZC  40 h6
M  ZZC  41 h7
M  ZZC  42 h8
M  ZZC  43 h9
M  ZZC  44 h10
M  ZZC  45 h11
M  ZZC  46 h12
M  ZZC  47 h13
M  ZZC  48 h14
M  ZZC  49 h15
M  ZZC  50 h16
M  ZZC  51 h17
M  ZZC  52 h18
M  ZZC  53 h19
M  ZZC  54 h20
M  ZZC  55 h21
M  ZZM   1 37
M  ZZI   1 125
M  ZZM   2 37
M  ZZI   2 125
M  ZZM   3 37
M  ZZI   3 125
M  ZZM   4 37
M  ZZI   4 125
M  ZZM   5 37
M  ZZI   5 125
M  ZZM   6 37
M  ZZI   6 125
M  ZZM   7 37
M  ZZI   7 125
M  ZZM   8 37
M  ZZI   8 124
M  ZZM   9 37
M  ZZI   9 124
M  ZZM  10 37
M  ZZI  10 124
M  ZZM  11 2
M  ZZI  11 120
M  ZZM  12 2
M  ZZI  12 120
M  ZZM  13 2
M  ZZI  13 120
M  ZZM  14 2
M  ZZI  14 120
M  ZZM  15 2
M  ZZI  15 120
M  ZZM  16 2
M  ZZI  16 120
M  ZZM  17 3
M  ZZI  17 121
M  ZZM  18 3
M  ZZI  18 121
M  ZZM  19 3
M  ZZI  19 121
M  ZZM  20 3
M  ZZI  20 121
M  ZZM  21 3
M  ZZI  21 121
M  ZZM  22 1
M  ZZI  22 112
M  ZZM  23 1
M  ZZI  23 112
M  ZZM  24 1
M  ZZI  24 113
M  ZZM  25 10
M  ZZI  25 191
M  ZZM  26 10
M  ZZI  26 191
M  ZZM  27 10
M  ZZI  27 192
M  ZZM  28 10
M  ZZI  28 211
M  ZZM  29 10
M  ZZI  29 211
M  ZZM  30 7
M  ZZI  30 81
M  ZZM  31 7
M  ZZI  31 81
M  ZZM  32 7
M  ZZI  32 81
M  ZZM  33 7
M  ZZI  33 81
M  ZZM  34 7
M  ZZI  34 81
M  ZZM  35 5
M  ZZI  35 1
M  ZZM  36 5
M  ZZI  36 1
M  ZZM  37 5
M  ZZI  37 1
M  ZZM  38 5
M  ZZI  38 1
M  ZZM  39 5
M  ZZI  39 1
M  ZZM  40 5
M  ZZI  40 1
M  ZZM  41 5
M  ZZI  41 1
M  ZZM  42 5
M  ZZI  42 1
M  ZZM  43 5
M  ZZI  43 1
M  ZZM  44 5
M  ZZI  44 1
M  ZZM  45 5
M  ZZI  45 1
M  ZZM  46 5
M  ZZI  46 1
M  ZZM  47 5
M  ZZI  47 1
M  ZZM  48 5
M  ZZI  48 1
M  ZZM  49 5
M  ZZI  49 1
M  ZZM  50 5
M  ZZI  50 1
M  ZZM  51 5
M  ZZI  51 1
M  ZZM  52 28
M  ZZI  52 11
M  ZZM  53 28
M  ZZI  53 11
M  ZZM  54 28
M  ZZI  54 11
M  ZZM  55 28
M  ZZI  55 11
M  END
> <IX>
11

> <NAME>
45

> <Score>
-35.716715

> <Natom>
55

> <Nflex>
6

> <Hbond>
-6.038649

> <Hphob>
-5.961436

> <VwInt>
-38.345594

> <Dsolv>
17.128456

> <SolEl>
0.87412

> <Eintl>
8.129271

> <RecConf>
ND

> <projPath>
icm/

> <NAME_>
45

$$$$
13
  MOLSOFT 08042117083D

 53 56  0  0  1  0  0  0  0  0999 V2000
  -21.1497   12.7416  -29.5250 C   0  0  0  0  0  0  0  0  0  0  0  0
  -22.3237   12.7630  -28.7885 C   0  0  0  0  0  0  0  0  0  0  0  0
  -20.2378   13.7780  -29.4312 C   0  0  0  0  0  0  0  0  0  0  0  0
  -22.5887   13.8004  -27.9108 C   0  0  0  0  0  0  0  0  0  0  0  0
  -20.5533   14.8401  -28.6067 C   0  0  0  0  0  0  0  0  0  0  0  0
  -21.6906   14.8475  -27.8406 C   0  0  0  0  0  0  0  0  0  0  0  0
  -18.9818   22.9683  -25.5547 C   0  0  0  0  0  0  0  0  0  0  0  0
  -17.5187   24.2589  -24.4566 C   0  0  0  0  0  0  0  0  0  0  0  0
  -18.0588   22.2637  -26.2293 C   0  0  0  0  0  0  0  0  0  0  0  0
  -21.0211   14.9628  -22.7154 C   0  0  0  0  0  0  0  0  0  0  0  0
  -21.4549   14.2355  -21.6842 C   0  0  0  0  0  0  0  0  0  0  0  0
  -16.6416   22.6409  -26.0025 C   0  0  0  0  0  0  0  0  0  0  0  0
  -19.8796   14.1915  -23.2770 C   0  0  0  0  0  0  0  0  0  0  0  0
  -18.3916   21.1884  -27.1372 C   0  0  0  0  0  0  0  0  0  0  0  0
  -19.2693   20.2286  -26.8056 C   0  0  0  0  0  0  0  0  0  0  0  0
  -19.6226   19.1515  -27.7602 C   0  0  0  0  0  0  0  0  0  0  0  0
  -22.1483   16.2064  -24.5655 C   0  0  0  0  0  0  0  0  0  0  0  0
  -19.7822   16.0955  -28.4238 C   0  0  0  0  0  0  0  0  0  0  0  0
  -21.8107   16.1102  -27.0480 C   0  0  2  0  0  0  0  0  0  0  0  0
  -20.8787   17.0183  -27.8820 C   0  0  1  0  0  0  0  0  0  0  0  0
  -22.5478   14.5286  -20.7086 C   0  0  0  0  0  0  0  0  0  0  0  0
  -21.3896   16.3082  -23.2571 C   0  0  0  0  0  0  0  0  0  0  0  0
  -18.7620   23.9768  -24.6586 N   0  0  0  0  0  0  0  0  0  0  0  0
  -16.4766   23.6380  -25.0880 N   0  0  0  0  0  0  0  0  0  0  0  0
  -20.7232   13.1042  -21.5708 N   0  0  0  0  0  0  0  0  0  0  0  0
  -20.3496   18.1567  -27.1458 N   0  0  0  0  0  0  0  0  0  0  0  0
  -21.3429   15.9704  -25.6672 N   0  0  0  0  0  0  0  0  0  0  0  0
  -15.7150   22.0754  -26.5629 O   0  0  0  0  0  0  0  0  0  0  0  0
  -19.2162   14.5382  -24.2440 O   0  0  0  0  0  0  0  0  0  0  0  0
  -19.3012   19.1664  -28.9393 O   0  0  0  0  0  0  0  0  0  0  0  0
  -23.3573   16.3739  -24.6127 O   0  0  0  0  0  0  0  0  0  0  0  0
  -19.7207   13.0574  -22.5206 O   0  0  0  0  0  0  0  0  0  0  0  0
  -20.9550   11.9102  -30.1873 H   0  0  0  0  0  0  0  0  0  0  0  0
  -23.0368   11.9558  -28.9014 H   0  0  0  0  0  0  0  0  0  0  0  0
  -19.3222   13.7736  -30.0134 H   0  0  0  0  0  0  0  0  0  0  0  0
  -23.4945   13.8097  -27.3217 H   0  0  0  0  0  0  0  0  0  0  0  0
  -20.0306   22.7381  -25.6920 H   0  0  0  0  0  0  0  0  0  0  0  0
  -17.2115   25.0422  -23.7445 H   0  0  0  0  0  0  0  0  0  0  0  0
  -17.8835   21.1798  -28.0978 H   0  0  0  0  0  0  0  0  0  0  0  0
  -19.7553   20.2163  -25.8363 H   0  0  0  0  0  0  0  0  0  0  0  0
  -18.9853   15.9402  -27.6940 H   0  0  0  0  0  0  0  0  0  0  0  0
  -19.3569   16.4631  -29.3641 H   0  0  0  0  0  0  0  0  0  0  0  0
  -22.8369   16.4957  -27.0585 H   0  0  0  0  0  0  0  0  0  0  0  0
  -21.4394   17.4198  -28.7379 H   0  0  0  0  0  0  0  0  0  0  0  0
  -22.1491   14.5737  -19.6915 H   0  0  0  0  0  0  0  0  0  0  0  0
  -23.3050   13.7391  -20.7381 H   0  0  0  0  0  0  0  0  0  0  0  0
  -23.0426   15.4802  -20.9207 H   0  0  0  0  0  0  0  0  0  0  0  0
  -20.4903   16.9151  -23.4088 H   0  0  0  0  0  0  0  0  0  0  0  0
  -22.0132   16.8554  -22.5435 H   0  0  0  0  0  0  0  0  0  0  0  0
  -15.5325   23.9139  -24.8588 H   0  0  0  0  0  0  0  0  0  0  0  0
  -20.7341   12.4699  -20.7705 H   0  0  0  0  0  0  0  0  0  0  0  0
  -20.5578   18.2169  -26.1549 H   0  0  0  0  0  0  0  0  0  0  0  0
  -20.3851   15.6569  -25.5161 H   0  0  0  0  0  0  0  0  0  0  0  0
  1  3  2  0  0  0  0
  1 33  1  0  0  0  0
  1  2  1  0  0  0  0
  2 34  1  0  0  0  0
  2  4  2  0  0  0  0
  3  5  1  0  0  0  0
  3 35  1  0  0  0  0
  4  6  1  0  0  0  0
  4 36  1  0  0  0  0
  5 18  1  0  0  0  0
  5  6  2  0  0  0  0
 19  6  1  0  0  0  0
  7 23  1  0  0  0  0
  7 37  1  0  0  0  0
  7  9  2  0  0  0  0
  8 24  1  0  0  0  0
  8 38  1  0  0  0  0
  8 23  2  0  0  0  0
  9 14  1  0  0  0  0
  9 12  1  0  0  0  0
 10 13  1  0  0  0  0
 10 11  2  0  0  0  0
 10 22  1  0  0  0  0
 11 21  1  0  0  0  0
 11 25  1  0  0  0  0
 12 28  2  0  0  0  0
 12 24  1  0  0  0  0
 13 29  2  0  0  0  0
 13 32  1  0  0  0  0
 14 15  2  0  0  0  0
 14 39  1  0  0  0  0
 15 16  1  0  0  0  0
 15 40  1  0  0  0  0
 16 26  1  0  0  0  0
 16 30  2  0  0  0  0
 17 22  1  0  0  0  0
 17 31  2  0  0  0  0
 17 27  1  0  0  0  0
 20 18  1  0  0  0  0
 18 42  1  0  0  0  0
 18 41  1  0  0  0  0
 19 27  1  0  0  0  0
 19 43  1  0  0  0  0
 19 20  1  0  0  0  0
 20 44  1  0  0  0  0
 20 26  1  0  0  0  0
 21 45  1  0  0  0  0
 21 46  1  0  0  0  0
 21 47  1  0  0  0  0
 22 48  1  0  0  0  0
 22 49  1  0  0  0  0
 24 50  1  0  0  0  0
 25 51  1  0  0  0  0
 25 32  1  0  0  0  0
 26 52  1  0  0  0  0
 27 53  1  0  0  0  0
M  ZZC   1 c1
M  ZZC   2 c2
M  ZZC   3 c3
M  ZZC   4 c4
M  ZZC   5 c5
M  ZZC   6 c6
M  ZZC   7 c7
M  ZZC   8 c8
M  ZZC   9 c9
M  ZZC  10 c10
M  ZZC  11 c11
M  ZZC  12 c12
M  ZZC  13 c13
M  ZZC  14 c14
M  ZZC  15 c15
M  ZZC  16 c16
M  ZZC  17 c17
M  ZZC  18 c18
M  ZZC  19 c19
M  ZZC  20 c20
M  ZZC  21 c21
M  ZZC  22 c22
M  ZZC  23 n1
M  ZZC  24 n2
M  ZZC  25 n3
M  ZZC  26 n4
M  ZZC  27 n5
M  ZZC  28 o1
M  ZZC  29 o2
M  ZZC  30 o3
M  ZZC  31 o4
M  ZZC  32 o5
M  ZZC  33 h1
M  ZZC  34 h2
M  ZZC  35 h3
M  ZZC  36 h4
M  ZZC  37 h5
M  ZZC  38 h6
M  ZZC  39 h7
M  ZZC  40 h8
M  ZZC  41 h9
M  ZZC  42 h10
M  ZZC  43 h11
M  ZZC  44 h12
M  ZZC  45 h13
M  ZZC  46 h14
M  ZZC  47 h15
M  ZZC  48 h16
M  ZZC  49 h17
M  ZZC  50 h18
M  ZZC  51 h19
M  ZZC  52 h20
M  ZZC  53 h21
M  ZZM   1 37
M  ZZI   1 125
M  ZZM   2 37
M  ZZI   2 125
M  ZZM   3 37
M  ZZI   3 125
M  ZZM   4 37
M  ZZI   4 125
M  ZZM   5 37
M  ZZI   5 124
M  ZZM   6 37
M  ZZI   6 124
M  ZZM   7 2
M  ZZI   7 120
M  ZZM   8 3
M  ZZI   8 121
M  ZZM   9 2
M  ZZI   9 120
M  ZZM  10 2
M  ZZI  10 120
M  ZZM  11 2
M  ZZI  11 120
M  ZZM  12 3
M  ZZI  12 121
M  ZZM  13 3
M  ZZI  13 123
M  ZZM  14 2
M  ZZI  14 120
M  ZZM  15 2
M  ZZI  15 120
M  ZZM  16 3
M  ZZI  16 121
M  ZZM  17 3
M  ZZI  17 121
M  ZZM  18 1
M  ZZI  18 112
M  ZZM  19 1
M  ZZI  19 113
M  ZZM  20 1
M  ZZI  20 113
M  ZZM  21 1
M  ZZI  21 111
M  ZZM  22 1
M  ZZI  22 112
M  ZZM  23 9
M  ZZI  23 220
M  ZZM  24 10
M  ZZI  24 191
M  ZZM  25 40
M  ZZI  25 194
M  ZZM  26 10
M  ZZI  26 211
M  ZZM  27 10
M  ZZI  27 211
M  ZZM  28 7
M  ZZI  28 81
M  ZZM  29 7
M  ZZI  29 82
M  ZZM  30 7
M  ZZI  30 81
M  ZZM  31 7
M  ZZI  31 81
M  ZZM  32 6
M  ZZI  32 65
M  ZZM  33 5
M  ZZI  33 1
M  ZZM  34 5
M  ZZI  34 1
M  ZZM  35 5
M  ZZI  35 1
M  ZZM  36 5
M  ZZI  36 1
M  ZZM  37 5
M  ZZI  37 1
M  ZZM  38 5
M  ZZI  38 1
M  ZZM  39 5
M  ZZI  39 1
M  ZZM  40 5
M  ZZI  40 1
M  ZZM  41 5
M  ZZI  41 1
M  ZZM  42 5
M  ZZI  42 1
M  ZZM  43 5
M  ZZI  43 1
M  ZZM  44 5
M  ZZI  44 1
M  ZZM  45 5
M  ZZI  45 1
M  ZZM  46 5
M  ZZI  46 1
M  ZZM  47 5
M  ZZI  47 1
M  ZZM  48 5
M  ZZI  48 1
M  ZZM  49 5
M  ZZI  49 1
M  ZZM  50 28
M  ZZI  50 11
M  ZZM  51 28
M  ZZI  51 11
M  ZZM  52 28
M  ZZI  52 11
M  ZZM  53 28
M  ZZI  53 11
M  END
> <IX>
12

> <NAME>
13

> <Score>
-36.443378

> <Natom>
53

> <Nflex>
4

> <Hbond>
-7.081002

> <Hphob>
-5.351416

> <VwInt>
-40.43574

> <Dsolv>
18.723084

> <SolEl>
9.447608

> <Eintl>
4.691685

> <RecConf>
ND

> <projPath>
icm/

> <NAME_>
13

$$$$
48
  MOLSOFT 08042117103D

 55 58  0  0  1  0  0  0  0  0999 V2000
  -23.2266   14.2347  -30.0848 C   0  0  0  0  0  0  0  0  0  0  0  0
  -22.9872   15.4965  -30.6125 C   0  0  0  0  0  0  0  0  0  0  0  0
  -22.4703   13.7509  -29.0301 C   0  0  0  0  0  0  0  0  0  0  0  0
  -21.9798   16.2948  -30.0941 C   0  0  0  0  0  0  0  0  0  0  0  0
  -21.4732   14.5599  -28.5176 C   0  0  0  0  0  0  0  0  0  0  0  0
  -21.2302   15.8090  -29.0332 C   0  0  0  0  0  0  0  0  0  0  0  0
  -19.4693   22.0927  -25.8932 C   0  0  0  0  0  0  0  0  0  0  0  0
  -18.4234   21.6044  -26.5773 C   0  0  0  0  0  0  0  0  0  0  0  0
  -17.1020   22.2238  -26.2724 C   0  0  0  0  0  0  0  0  0  0  0  0
  -20.5846   13.9313  -22.1839 C   0  0  0  0  0  0  0  0  0  0  0  0
  -18.3195   23.6903  -24.7982 C   0  0  0  0  0  0  0  0  0  0  0  0
  -22.0460   15.5876  -22.5734 C   0  0  0  0  0  0  0  0  0  0  0  0
  -18.5242   20.4439  -27.4422 C   0  0  0  0  0  0  0  0  0  0  0  0
  -19.5824   20.1490  -28.2199 C   0  0  0  0  0  0  0  0  0  0  0  0
  -19.5882   18.8288  -28.8887 C   0  0  0  0  0  0  0  0  0  0  0  0
  -19.9533   17.1030  -25.0838 C   0  0  0  0  0  0  0  0  0  0  0  0
  -20.5009   14.2084  -27.4457 C   0  0  0  0  0  0  0  0  0  0  0  0
  -19.7836   15.0360  -22.8285 C   0  0  0  0  0  0  0  0  0  0  0  0
  -20.0465   16.4389  -28.3720 C   0  0  2  0  0  0  0  0  0  0  0  0
  -19.9179   15.5798  -27.0878 C   0  0  1  0  0  0  0  0  0  0  0  0
  -18.2131   24.8626  -23.8611 C   0  0  0  0  0  0  0  0  0  0  0  0
  -20.6074   17.2852  -23.7267 C   0  0  0  0  0  0  0  0  0  0  0  0
  -19.4689   23.1395  -25.0146 N   0  0  0  0  0  0  0  0  0  0  0  0
  -17.1528   23.2708  -25.3902 N   0  0  0  0  0  0  0  0  0  0  0  0
  -21.8574   14.3819  -21.9914 N   0  0  0  0  0  0  0  0  0  0  0  0
  -20.8473   15.9988  -23.0733 N   0  0  0  0  0  0  0  0  0  0  0  0
  -20.1763   17.8628  -28.1078 N   0  0  0  0  0  0  0  0  0  0  0  0
  -20.5494   16.1288  -25.8770 N   0  0  0  0  0  0  0  0  0  0  0  0
  -16.0525   21.8170  -26.7488 O   0  0  0  0  0  0  0  0  0  0  0  0
  -20.1593   12.8227  -21.8969 O   0  0  0  0  0  0  0  0  0  0  0  0
  -23.1078   16.1823  -22.6672 O   0  0  0  0  0  0  0  0  0  0  0  0
  -19.0988   18.6516  -29.9919 O   0  0  0  0  0  0  0  0  0  0  0  0
  -19.0395   17.8292  -25.4503 O   0  0  0  0  0  0  0  0  0  0  0  0
  -24.0048   13.6148  -30.5086 H   0  0  0  0  0  0  0  0  0  0  0  0
  -23.5810   15.8553  -31.4474 H   0  0  0  0  0  0  0  0  0  0  0  0
  -22.6492   12.7572  -28.6313 H   0  0  0  0  0  0  0  0  0  0  0  0
  -21.7718   17.2679  -30.5285 H   0  0  0  0  0  0  0  0  0  0  0  0
  -20.4453   21.6341  -26.0090 H   0  0  0  0  0  0  0  0  0  0  0  0
  -17.6786   19.7645  -27.4092 H   0  0  0  0  0  0  0  0  0  0  0  0
  -20.4688   20.7645  -28.3136 H   0  0  0  0  0  0  0  0  0  0  0  0
  -20.9827   13.7095  -26.5972 H   0  0  0  0  0  0  0  0  0  0  0  0
  -19.7307   13.5497  -27.8634 H   0  0  0  0  0  0  0  0  0  0  0  0
  -19.0473   15.4487  -22.1322 H   0  0  0  0  0  0  0  0  0  0  0  0
  -19.3317   14.6949  -23.7649 H   0  0  0  0  0  0  0  0  0  0  0  0
  -19.1768   16.2715  -29.0199 H   0  0  0  0  0  0  0  0  0  0  0  0
  -18.8704   15.4643  -26.8211 H   0  0  0  0  0  0  0  0  0  0  0  0
  -18.7228   25.7216  -24.3074 H   0  0  0  0  0  0  0  0  0  0  0  0
  -17.1712   25.1263  -23.6622 H   0  0  0  0  0  0  0  0  0  0  0  0
  -18.7087   24.6201  -22.9171 H   0  0  0  0  0  0  0  0  0  0  0  0
  -19.9503   17.8729  -23.0793 H   0  0  0  0  0  0  0  0  0  0  0  0
  -21.5503   17.8271  -23.8514 H   0  0  0  0  0  0  0  0  0  0  0  0
  -16.2776   23.7227  -25.1555 H   0  0  0  0  0  0  0  0  0  0  0  0
  -22.5905   13.8429  -21.5526 H   0  0  0  0  0  0  0  0  0  0  0  0
  -20.6183   18.1415  -27.2403 H   0  0  0  0  0  0  0  0  0  0  0  0
  -21.3960   15.6858  -25.5315 H   0  0  0  0  0  0  0  0  0  0  0  0
  1 34  1  0  0  0  0
  1  2  1  0  0  0  0
  1  3  2  0  0  0  0
  2 35  1  0  0  0  0
  2  4  2  0  0  0  0
  3  5  1  0  0  0  0
  3 36  1  0  0  0  0
  4 37  1  0  0  0  0
  4  6  1  0  0  0  0
  5 17  1  0  0  0  0
  5  6  2  0  0  0  0
 19  6  1  0  0  0  0
  7  8  2  0  0  0  0
  7 38  1  0  0  0  0
  7 23  1  0  0  0  0
  8 13  1  0  0  0  0
  8  9  1  0  0  0  0
  9 24  1  0  0  0  0
  9 29  2  0  0  0  0
 10 25  1  0  0  0  0
 10 30  2  0  0  0  0
 10 18  1  0  0  0  0
 11 23  2  0  0  0  0
 11 21  1  0  0  0  0
 11 24  1  0  0  0  0
 12 26  1  0  0  0  0
 12 31  2  0  0  0  0
 12 25  1  0  0  0  0
 13 14  2  0  0  0  0
 13 39  1  0  0  0  0
 14 15  1  0  0  0  0
 14 40  1  0  0  0  0
 15 27  1  0  0  0  0
 15 32  2  0  0  0  0
 16 28  1  0  0  0  0
 16 33  2  0  0  0  0
 16 22  1  0  0  0  0
 20 17  1  0  0  0  0
 17 41  1  0  0  0  0
 17 42  1  0  0  0  0
 18 43  1  0  0  0  0
 18 44  1  0  0  0  0
 18 26  1  0  0  0  0
 19 45  1  0  0  0  0
 19 20  1  0  0  0  0
 19 27  1  0  0  0  0
 20 46  1  0  0  0  0
 20 28  1  0  0  0  0
 21 47  1  0  0  0  0
 21 48  1  0  0  0  0
 21 49  1  0  0  0  0
 22 50  1  0  0  0  0
 22 51  1  0  0  0  0
 22 26  1  0  0  0  0
 24 52  1  0  0  0  0
 25 53  1  0  0  0  0
 27 54  1  0  0  0  0
 28 55  1  0  0  0  0
M  ZZC   1 c1
M  ZZC   2 c2
M  ZZC   3 c3
M  ZZC   4 c4
M  ZZC   5 c5
M  ZZC   6 c6
M  ZZC   7 c7
M  ZZC   8 c8
M  ZZC   9 c9
M  ZZC  10 c10
M  ZZC  11 c11
M  ZZC  12 c12
M  ZZC  13 c13
M  ZZC  14 c14
M  ZZC  15 c15
M  ZZC  16 c16
M  ZZC  17 c17
M  ZZC  18 c18
M  ZZC  19 c19
M  ZZC  20 c20
M  ZZC  21 c21
M  ZZC  22 c22
M  ZZC  23 n1
M  ZZC  24 n2
M  ZZC  25 n3
M  ZZC  26 n4
M  ZZC  27 n5
M  ZZC  28 n6
M  ZZC  29 o1
M  ZZC  30 o2
M  ZZC  31 o3
M  ZZC  32 o4
M  ZZC  33 o5
M  ZZC  34 h1
M  ZZC  35 h2
M  ZZC  36 h3
M  ZZC  37 h4
M  ZZC  38 h5
M  ZZC  39 h6
M  ZZC  40 h7
M  ZZC  41 h8
M  ZZC  42 h9
M  ZZC  43 h10
M  ZZC  44 h11
M  ZZC  45 h12
M  ZZC  46 h13
M  ZZC  47 h14
M  ZZC  48 h15
M  ZZC  49 h16
M  ZZC  50 h17
M  ZZC  51 h18
M  ZZC  52 h19
M  ZZC  53 h20
M  ZZC  54 h21
M  ZZC  55 h22
M  ZZM   1 37
M  ZZI   1 125
M  ZZM   2 37
M  ZZI   2 125
M  ZZM   3 37
M  ZZI   3 125
M  ZZM   4 37
M  ZZI   4 125
M  ZZM   5 37
M  ZZI   5 124
M  ZZM   6 37
M  ZZI   6 124
M  ZZM   7 2
M  ZZI   7 120
M  ZZM   8 2
M  ZZI   8 120
M  ZZM   9 3
M  ZZI   9 121
M  ZZM  10 3
M  ZZI  10 121
M  ZZM  11 3
M  ZZI  11 121
M  ZZM  12 3
M  ZZI  12 121
M  ZZM  13 2
M  ZZI  13 120
M  ZZM  14 2
M  ZZI  14 120
M  ZZM  15 3
M  ZZI  15 121
M  ZZM  16 3
M  ZZI  16 121
M  ZZM  17 1
M  ZZI  17 112
M  ZZM  18 1
M  ZZI  18 112
M  ZZM  19 1
M  ZZI  19 113
M  ZZM  20 1
M  ZZI  20 113
M  ZZM  21 1
M  ZZI  21 111
M  ZZM  22 1
M  ZZI  22 112
M  ZZM  23 9
M  ZZI  23 220
M  ZZM  24 10
M  ZZI  24 191
M  ZZM  25 10
M  ZZI  25 191
M  ZZM  26 10
M  ZZI  26 192
M  ZZM  27 10
M  ZZI  27 211
M  ZZM  28 10
M  ZZI  28 211
M  ZZM  29 7
M  ZZI  29 81
M  ZZM  30 7
M  ZZI  30 81
M  ZZM  31 7
M  ZZI  31 81
M  ZZM  32 7
M  ZZI  32 81
M  ZZM  33 7
M  ZZI  33 81
M  ZZM  34 5
M  ZZI  34 1
M  ZZM  35 5
M  ZZI  35 1
M  ZZM  36 5
M  ZZI  36 1
M  ZZM  37 5
M  ZZI  37 1
M  ZZM  38 5
M  ZZI  38 1
M  ZZM  39 5
M  ZZI  39 1
M  ZZM  40 5
M  ZZI  40 1
M  ZZM  41 5
M  ZZI  41 1
M  ZZM  42 5
M  ZZI  42 1
M  ZZM  43 5
M  ZZI  43 1
M  ZZM  44 5
M  ZZI  44 1
M  ZZM  45 5
M  ZZI  45 1
M  ZZM  46 5
M  ZZI  46 1
M  ZZM  47 5
M  ZZI  47 1
M  ZZM  48 5
M  ZZI  48 1
M  ZZM  49 5
M  ZZI  49 1
M  ZZM  50 5
M  ZZI  50 1
M  ZZM  51 5
M  ZZI  51 1
M  ZZM  52 28
M  ZZI  52 11
M  ZZM  53 28
M  ZZI  53 11
M  ZZM  54 28
M  ZZI  54 11
M  ZZM  55 28
M  ZZI  55 11
M  END
> <IX>
13

> <NAME>
48

> <Score>
-30.709077

> <Natom>
55

> <Nflex>
4

> <Hbond>
-8.5539

> <Hphob>
-6.187618

> <VwInt>
-38.953812

> <Dsolv>
22.67639

> <SolEl>
10.857029

> <Eintl>
12.431456

> <RecConf>
ND

> <projPath>
icm/

> <NAME_>
48

$$$$
16
  MOLSOFT 08042117113D

 52 54  0  0  1  0  0  0  0  0999 V2000
  -17.4465   23.4066  -25.2745 C   0  0  0  0  0  0  0  0  0  0  0  0
  -18.7361   23.1230  -24.8761 C   0  0  0  0  0  0  0  0  0  0  0  0
  -16.7729   22.5186  -26.0884 C   0  0  0  0  0  0  0  0  0  0  0  0
  -19.3421   21.9456  -25.2763 C   0  0  0  0  0  0  0  0  0  0  0  0
  -17.3753   21.3365  -26.4895 C   0  0  0  0  0  0  0  0  0  0  0  0
  -18.6694   21.0201  -26.0788 C   0  0  0  0  0  0  0  0  0  0  0  0
  -21.9914   15.7870  -21.8269 C   0  0  0  0  0  0  0  0  0  0  0  0
  -21.0085   15.2026  -22.5308 C   0  0  0  0  0  0  0  0  0  0  0  0
  -20.5296   13.8824  -22.0120 C   0  0  0  0  0  0  0  0  0  0  0  0
  -20.0393   14.0354  -28.2763 C   0  0  0  0  0  0  0  0  0  0  0  0
  -22.0996   14.0648  -20.1536 C   0  0  0  0  0  0  0  0  0  0  0  0
  -21.7914   15.4050  -28.0353 C   0  0  0  0  0  0  0  0  0  0  0  0
  -20.4878   15.7501  -23.7736 C   0  0  0  0  0  0  0  0  0  0  0  0
  -20.3409   17.0680  -24.0035 C   0  0  0  0  0  0  0  0  0  0  0  0
  -19.8605   17.5789  -25.3171 C   0  0  0  0  0  0  0  0  0  0  0  0
  -20.5344   18.2922  -29.2731 C   0  0  0  0  0  0  0  0  0  0  0  0
  -19.8420   15.1276  -29.2990 C   0  0  0  0  0  0  0  0  0  0  0  0
  -21.3408   17.1193  -29.8091 C   0  0  0  0  0  0  0  0  0  0  0  0
  -20.4895   20.0177  -27.4735 C   0  0  0  0  0  0  0  0  0  0  0  0
  -19.3222   19.7171  -26.5071 C   0  0  2  0  0  0  0  0  0  0  0  0
  -22.5145   15.2486  -20.6843 N   0  0  0  0  0  0  0  0  0  0  0  0
  -21.1094   13.4451  -20.8522 N   0  0  0  0  0  0  0  0  0  0  0  0
  -21.1906   14.2819  -27.5909 N   0  0  0  0  0  0  0  0  0  0  0  0
  -21.0455   15.9001  -29.0649 N   0  0  0  0  0  0  0  0  0  0  0  0
  -19.7434   18.9543  -25.3298 N   0  0  0  0  0  0  0  0  0  0  0  0
  -21.0625   18.8471  -28.1202 N   0  0  0  0  0  0  0  0  0  0  0  0
  -19.6802   13.2171  -22.5837 O   0  0  0  0  0  0  0  0  0  0  0  0
  -19.2859   13.0918  -28.1022 O   0  0  0  0  0  0  0  0  0  0  0  0
  -22.5835   13.5978  -19.1377 O   0  0  0  0  0  0  0  0  0  0  0  0
  -22.8156   15.8822  -27.5763 O   0  0  0  0  0  0  0  0  0  0  0  0
  -19.6184   16.8401  -26.2589 O   0  0  0  0  0  0  0  0  0  0  0  0
  -19.5105   18.6886  -29.8123 O   0  0  0  0  0  0  0  0  0  0  0  0
  -16.9651   24.3237  -24.9511 H   0  0  0  0  0  0  0  0  0  0  0  0
  -19.2728   23.8262  -24.2467 H   0  0  0  0  0  0  0  0  0  0  0  0
  -15.7656   22.7583  -26.4066 H   0  0  0  0  0  0  0  0  0  0  0  0
  -20.3587   21.7552  -24.9471 H   0  0  0  0  0  0  0  0  0  0  0  0
  -16.8215   20.6564  -27.1298 H   0  0  0  0  0  0  0  0  0  0  0  0
  -22.4441   16.7267  -22.1291 H   0  0  0  0  0  0  0  0  0  0  0  0
  -20.2160   15.0272  -24.5384 H   0  0  0  0  0  0  0  0  0  0  0  0
  -20.5781   17.8033  -23.2433 H   0  0  0  0  0  0  0  0  0  0  0  0
  -18.9502   15.7243  -29.0816 H   0  0  0  0  0  0  0  0  0  0  0  0
  -19.8465   14.7206  -30.3127 H   0  0  0  0  0  0  0  0  0  0  0  0
  -22.4081   17.3486  -29.7184 H   0  0  0  0  0  0  0  0  0  0  0  0
  -21.1139   16.9602  -30.8676 H   0  0  0  0  0  0  0  0  0  0  0  0
  -21.3149   20.5115  -26.9494 H   0  0  0  0  0  0  0  0  0  0  0  0
  -20.1554   20.6996  -28.2642 H   0  0  0  0  0  0  0  0  0  0  0  0
  -18.5859   19.0993  -27.0335 H   0  0  0  0  0  0  0  0  0  0  0  0
  -23.2558   15.7361  -20.1938 H   0  0  0  0  0  0  0  0  0  0  0  0
  -20.7886   12.5588  -20.4893 H   0  0  0  0  0  0  0  0  0  0  0  0
  -21.5424   13.7125  -26.8351 H   0  0  0  0  0  0  0  0  0  0  0  0
  -19.9662   19.4679  -24.4854 H   0  0  0  0  0  0  0  0  0  0  0  0
  -21.8604   18.3960  -27.6811 H   0  0  0  0  0  0  0  0  0  0  0  0
  1 33  1  0  0  0  0
  1  2  1  0  0  0  0
  1  3  2  0  0  0  0
  2 34  1  0  0  0  0
  2  4  2  0  0  0  0
  3  5  1  0  0  0  0
  3 35  1  0  0  0  0
  4 36  1  0  0  0  0
  4  6  1  0  0  0  0
  5  6  2  0  0  0  0
  5 37  1  0  0  0  0
 20  6  1  0  0  0  0
  7  8  2  0  0  0  0
  7 38  1  0  0  0  0
  7 21  1  0  0  0  0
  8 13  1  0  0  0  0
  8  9  1  0  0  0  0
  9 22  1  0  0  0  0
  9 27  2  0  0  0  0
 10 23  1  0  0  0  0
 10 28  2  0  0  0  0
 10 17  1  0  0  0  0
 11 21  1  0  0  0  0
 11 29  2  0  0  0  0
 11 22  1  0  0  0  0
 12 24  1  0  0  0  0
 12 30  2  0  0  0  0
 12 23  1  0  0  0  0
 13 14  2  0  0  0  0
 13 39  1  0  0  0  0
 14 15  1  0  0  0  0
 14 40  1  0  0  0  0
 15 25  1  0  0  0  0
 15 31  2  0  0  0  0
 16 26  1  0  0  0  0
 16 32  2  0  0  0  0
 16 18  1  0  0  0  0
 17 42  1  0  0  0  0
 17 41  1  0  0  0  0
 17 24  1  0  0  0  0
 18 43  1  0  0  0  0
 18 44  1  0  0  0  0
 18 24  1  0  0  0  0
 20 19  1  0  0  0  0
 19 45  1  0  0  0  0
 19 46  1  0  0  0  0
 19 26  1  0  0  0  0
 20 47  1  0  0  0  0
 20 25  1  0  0  0  0
 21 48  1  0  0  0  0
 22 49  1  0  0  0  0
 23 50  1  0  0  0  0
 25 51  1  0  0  0  0
 26 52  1  0  0  0  0
M  ZZC   1 c1
M  ZZC   2 c2
M  ZZC   3 c3
M  ZZC   4 c4
M  ZZC   5 c5
M  ZZC   6 c6
M  ZZC   7 c7
M  ZZC   8 c8
M  ZZC   9 c9
M  ZZC  10 c10
M  ZZC  11 c11
M  ZZC  12 c12
M  ZZC  13 c13
M  ZZC  14 c14
M  ZZC  15 c15
M  ZZC  16 c16
M  ZZC  17 c17
M  ZZC  18 c18
M  ZZC  19 c19
M  ZZC  20 c20
M  ZZC  21 n1
M  ZZC  22 n2
M  ZZC  23 n3
M  ZZC  24 n4
M  ZZC  25 n5
M  ZZC  26 n6
M  ZZC  27 o1
M  ZZC  28 o2
M  ZZC  29 o3
M  ZZC  30 o4
M  ZZC  31 o5
M  ZZC  32 o6
M  ZZC  33 h1
M  ZZC  34 h2
M  ZZC  35 h3
M  ZZC  36 h4
M  ZZC  37 h5
M  ZZC  38 h6
M  ZZC  39 h7
M  ZZC  40 h8
M  ZZC  41 h9
M  ZZC  42 h10
M  ZZC  43 h11
M  ZZC  44 h12
M  ZZC  45 h13
M  ZZC  46 h14
M  ZZC  47 h15
M  ZZC  48 h16
M  ZZC  49 h17
M  ZZC  50 h18
M  ZZC  51 h19
M  ZZC  52 h20
M  ZZM   1 37
M  ZZI   1 125
M  ZZM   2 37
M  ZZI   2 125
M  ZZM   3 37
M  ZZI   3 125
M  ZZM   4 37
M  ZZI   4 125
M  ZZM   5 37
M  ZZI   5 125
M  ZZM   6 37
M  ZZI   6 124
M  ZZM   7 2
M  ZZI   7 120
M  ZZM   8 2
M  ZZI   8 120
M  ZZM   9 3
M  ZZI   9 121
M  ZZM  10 3
M  ZZI  10 121
M  ZZM  11 3
M  ZZI  11 121
M  ZZM  12 3
M  ZZI  12 121
M  ZZM  13 2
M  ZZI  13 120
M  ZZM  14 2
M  ZZI  14 120
M  ZZM  15 3
M  ZZI  15 121
M  ZZM  16 3
M  ZZI  16 121
M  ZZM  17 1
M  ZZI  17 112
M  ZZM  18 1
M  ZZI  18 112
M  ZZM  19 1
M  ZZI  19 112
M  ZZM  20 1
M  ZZI  20 113
M  ZZM  21 10
M  ZZI  21 191
M  ZZM  22 10
M  ZZI  22 191
M  ZZM  23 10
M  ZZI  23 191
M  ZZM  24 10
M  ZZI  24 192
M  ZZM  25 10
M  ZZI  25 211
M  ZZM  26 10
M  ZZI  26 211
M  ZZM  27 7
M  ZZI  27 81
M  ZZM  28 7
M  ZZI  28 81
M  ZZM  29 7
M  ZZI  29 81
M  ZZM  30 7
M  ZZI  30 81
M  ZZM  31 7
M  ZZI  31 81
M  ZZM  32 7
M  ZZI  32 81
M  ZZM  33 5
M  ZZI  33 1
M  ZZM  34 5
M  ZZI  34 1
M  ZZM  35 5
M  ZZI  35 1
M  ZZM  36 5
M  ZZI  36 1
M  ZZM  37 5
M  ZZI  37 1
M  ZZM  38 5
M  ZZI  38 1
M  ZZM  39 5
M  ZZI  39 1
M  ZZM  40 5
M  ZZI  40 1
M  ZZM  41 5
M  ZZI  41 1
M  ZZM  42 5
M  ZZI  42 1
M  ZZM  43 5
M  ZZI  43 1
M  ZZM  44 5
M  ZZI  44 1
M  ZZM  45 5
M  ZZI  45 1
M  ZZM  46 5
M  ZZI  46 1
M  ZZM  47 5
M  ZZI  47 1
M  ZZM  48 28
M  ZZI  48 11
M  ZZM  49 28
M  ZZI  49 11
M  ZZM  50 28
M  ZZI  50 11
M  ZZM  51 28
M  ZZI  51 11
M  ZZM  52 28
M  ZZI  52 11
M  END
> <IX>
14

> <NAME>
16

> <Score>
-23.14979

> <Natom>
52

> <Nflex>
6

> <Hbond>
-3.798681

> <Hphob>
-5.272253

> <VwInt>
-40.711272

> <Dsolv>
24.310838

> <SolEl>
12.634584

> <Eintl>
0.887668

> <RecConf>
ND

> <projPath>
icm/

> <NAME_>
16

$$$$
35
  MOLSOFT 08042117133D

 53 56  0  0  1  0  0  0  0  0999 V2000
  -21.1692   14.1546  -20.4458 C   0  0  0  0  0  0  0  0  0  0  0  0
  -22.1100   15.1629  -20.6086 C   0  0  0  0  0  0  0  0  0  0  0  0
  -17.5754   23.1745  -25.1603 C   0  0  0  0  0  0  0  0  0  0  0  0
  -18.5935   22.2445  -25.2668 C   0  0  0  0  0  0  0  0  0  0  0  0
  -20.3167   13.8117  -21.4816 C   0  0  0  0  0  0  0  0  0  0  0  0
  -22.2110   15.8447  -21.8110 C   0  0  0  0  0  0  0  0  0  0  0  0
  -16.4014   22.9529  -25.8545 C   0  0  0  0  0  0  0  0  0  0  0  0
  -17.1863   21.0240  -26.7530 C   0  0  0  0  0  0  0  0  0  0  0  0
  -18.3933   21.1301  -26.0739 C   0  0  0  0  0  0  0  0  0  0  0  0
  -20.4601   14.4617  -22.6933 C   0  0  0  0  0  0  0  0  0  0  0  0
  -21.3801   15.4662  -22.8525 C   0  0  0  0  0  0  0  0  0  0  0  0
  -22.9196   15.0013  -30.7708 C   0  0  0  0  0  0  0  0  0  0  0  0
  -22.2992   16.1318  -30.4131 C   0  0  0  0  0  0  0  0  0  0  0  0
  -22.3589   13.6713  -30.4524 C   0  0  0  0  0  0  0  0  0  0  0  0
  -21.0276   16.1213  -29.6608 C   0  0  0  0  0  0  0  0  0  0  0  0
  -19.3905   20.0645  -26.1874 C   0  0  0  0  0  0  0  0  0  0  0  0
  -19.6936   19.3041  -25.1218 C   0  0  0  0  0  0  0  0  0  0  0  0
  -20.6364   18.1706  -25.2756 C   0  0  0  0  0  0  0  0  0  0  0  0
  -19.8093   14.1585  -27.1945 C   0  0  0  0  0  0  0  0  0  0  0  0
  -19.7032   14.2260  -23.9562 C   0  0  0  0  0  0  0  0  0  0  0  0
  -21.3216   16.0347  -24.2327 C   0  0  2  0  0  0  0  0  0  0  0  0
  -20.6698   14.8447  -24.9717 C   0  0  1  0  0  0  0  0  0  0  0  0
  -19.3388   14.6660  -28.5440 C   0  0  0  0  0  0  0  0  0  0  0  0
  -16.1699   21.8953  -26.6488 N   0  0  0  0  0  0  0  0  0  0  0  0
  -21.1861   13.6718  -29.7407 N   0  0  0  0  0  0  0  0  0  0  0  0
  -20.5251   14.8617  -29.3691 N   0  0  0  0  0  0  0  0  0  0  0  0
  -20.5207   17.2552  -24.2550 N   0  0  0  0  0  0  0  0  0  0  0  0
  -20.0651   15.1499  -26.2667 N   0  0  0  0  0  0  0  0  0  0  0  0
  -22.9150   12.6571  -30.8394 O   0  0  0  0  0  0  0  0  0  0  0  0
  -20.5028   17.1770  -29.3353 O   0  0  0  0  0  0  0  0  0  0  0  0
  -21.3892   18.0604  -26.2315 O   0  0  0  0  0  0  0  0  0  0  0  0
  -20.0222   12.9716  -26.9977 O   0  0  0  0  0  0  0  0  0  0  0  0
  -21.0954   13.6316  -19.4979 H   0  0  0  0  0  0  0  0  0  0  0  0
  -22.7660   15.4247  -19.7846 H   0  0  0  0  0  0  0  0  0  0  0  0
  -17.6845   24.0532  -24.5330 H   0  0  0  0  0  0  0  0  0  0  0  0
  -19.5206   22.3876  -24.7193 H   0  0  0  0  0  0  0  0  0  0  0  0
  -19.5671   13.0435  -21.3399 H   0  0  0  0  0  0  0  0  0  0  0  0
  -22.9344   16.6441  -21.9340 H   0  0  0  0  0  0  0  0  0  0  0  0
  -15.5830   23.6546  -25.7687 H   0  0  0  0  0  0  0  0  0  0  0  0
  -16.9924   20.1805  -27.4067 H   0  0  0  0  0  0  0  0  0  0  0  0
  -23.8527   15.0253  -31.3188 H   0  0  0  0  0  0  0  0  0  0  0  0
  -22.7134   17.1027  -30.6573 H   0  0  0  0  0  0  0  0  0  0  0  0
  -19.8101   19.8795  -27.1729 H   0  0  0  0  0  0  0  0  0  0  0  0
  -19.2455   19.4640  -24.1478 H   0  0  0  0  0  0  0  0  0  0  0  0
  -18.7372   14.7432  -23.9231 H   0  0  0  0  0  0  0  0  0  0  0  0
  -19.5444   13.1609  -24.1482 H   0  0  0  0  0  0  0  0  0  0  0  0
  -22.3204   16.2408  -24.6365 H   0  0  0  0  0  0  0  0  0  0  0  0
  -21.4565   14.1037  -25.1700 H   0  0  0  0  0  0  0  0  0  0  0  0
  -18.8034   15.6134  -28.4391 H   0  0  0  0  0  0  0  0  0  0  0  0
  -18.6718   13.9343  -29.0131 H   0  0  0  0  0  0  0  0  0  0  0  0
  -20.7719   12.7820  -29.4758 H   0  0  0  0  0  0  0  0  0  0  0  0
  -19.8184   17.3902  -23.5316 H   0  0  0  0  0  0  0  0  0  0  0  0
  -19.9345   16.1222  -26.5291 H   0  0  0  0  0  0  0  0  0  0  0  0
  1 33  1  0  0  0  0
  1  2  1  0  0  0  0
  1  5  2  0  0  0  0
  2 34  1  0  0  0  0
  2  6  2  0  0  0  0
  3  4  2  0  0  0  0
  3 35  1  0  0  0  0
  3  7  1  0  0  0  0
  4  9  1  0  0  0  0
  4 36  1  0  0  0  0
  5 10  1  0  0  0  0
  5 37  1  0  0  0  0
  6 38  1  0  0  0  0
  6 11  1  0  0  0  0
  7 39  1  0  0  0  0
  7 24  2  0  0  0  0
  8 24  1  0  0  0  0
  8 40  1  0  0  0  0
  8  9  2  0  0  0  0
  9 16  1  0  0  0  0
 10 11  2  0  0  0  0
 10 20  1  0  0  0  0
 21 11  1  0  0  0  0
 12 13  2  0  0  0  0
 12 41  1  0  0  0  0
 12 14  1  0  0  0  0
 13 15  1  0  0  0  0
 13 42  1  0  0  0  0
 14 29  2  0  0  0  0
 14 25  1  0  0  0  0
 15 26  1  0  0  0  0
 15 30  2  0  0  0  0
 16 17  2  0  0  0  0
 16 43  1  0  0  0  0
 17 18  1  0  0  0  0
 17 44  1  0  0  0  0
 18 27  1  0  0  0  0
 18 31  2  0  0  0  0
 19 28  1  0  0  0  0
 19 32  2  0  0  0  0
 19 23  1  0  0  0  0
 20 45  1  0  0  0  0
 20 46  1  0  0  0  0
 22 20  1  0  0  0  0
 21 22  1  0  0  0  0
 21 47  1  0  0  0  0
 21 27  1  0  0  0  0
 22 48  1  0  0  0  0
 22 28  1  0  0  0  0
 23 49  1  0  0  0  0
 23 50  1  0  0  0  0
 23 26  1  0  0  0  0
 25 51  1  0  0  0  0
 25 26  1  0  0  0  0
 27 52  1  0  0  0  0
 28 53  1  0  0  0  0
M  ZZC   1 c1
M  ZZC   2 c2
M  ZZC   3 c3
M  ZZC   4 c4
M  ZZC   5 c5
M  ZZC   6 c6
M  ZZC   7 c7
M  ZZC   8 c8
M  ZZC   9 c9
M  ZZC  10 c10
M  ZZC  11 c11
M  ZZC  12 c12
M  ZZC  13 c13
M  ZZC  14 c14
M  ZZC  15 c15
M  ZZC  16 c16
M  ZZC  17 c17
M  ZZC  18 c18
M  ZZC  19 c19
M  ZZC  20 c20
M  ZZC  21 c21
M  ZZC  22 c22
M  ZZC  23 c23
M  ZZC  24 n1
M  ZZC  25 n2
M  ZZC  26 n3
M  ZZC  27 n4
M  ZZC  28 n5
M  ZZC  29 o1
M  ZZC  30 o2
M  ZZC  31 o3
M  ZZC  32 o4
M  ZZC  33 h1
M  ZZC  34 h2
M  ZZC  35 h3
M  ZZC  36 h4
M  ZZC  37 h5
M  ZZC  38 h6
M  ZZC  39 h7
M  ZZC  40 h8
M  ZZC  41 h9
M  ZZC  42 h10
M  ZZC  43 h11
M  ZZC  44 h12
M  ZZC  45 h13
M  ZZC  46 h14
M  ZZC  47 h15
M  ZZC  48 h16
M  ZZC  49 h17
M  ZZC  50 h18
M  ZZC  51 h19
M  ZZC  52 h20
M  ZZC  53 h21
M  ZZM   1 37
M  ZZI   1 125
M  ZZM   2 37
M  ZZI   2 125
M  ZZM   3 37
M  ZZI   3 125
M  ZZM   4 37
M  ZZI   4 125
M  ZZM   5 37
M  ZZI   5 125
M  ZZM   6 37
M  ZZI   6 125
M  ZZM   7 37
M  ZZI   7 125
M  ZZM   8 37
M  ZZI   8 125
M  ZZM   9 37
M  ZZI   9 124
M  ZZM  10 37
M  ZZI  10 124
M  ZZM  11 37
M  ZZI  11 124
M  ZZM  12 2
M  ZZI  12 120
M  ZZM  13 2
M  ZZI  13 120
M  ZZM  14 3
M  ZZI  14 121
M  ZZM  15 3
M  ZZI  15 121
M  ZZM  16 2
M  ZZI  16 120
M  ZZM  17 2
M  ZZI  17 120
M  ZZM  18 3
M  ZZI  18 121
M  ZZM  19 3
M  ZZI  19 121
M  ZZM  20 1
M  ZZI  20 112
M  ZZM  21 1
M  ZZI  21 113
M  ZZM  22 1
M  ZZI  22 113
M  ZZM  23 1
M  ZZI  23 112
M  ZZM  24 38
M  ZZI  24 223
M  ZZM  25 10
M  ZZI  25 191
M  ZZM  26 10
M  ZZI  26 192
M  ZZM  27 10
M  ZZI  27 211
M  ZZM  28 10
M  ZZI  28 211
M  ZZM  29 7
M  ZZI  29 81
M  ZZM  30 7
M  ZZI  30 81
M  ZZM  31 7
M  ZZI  31 81
M  ZZM  32 7
M  ZZI  32 81
M  ZZM  33 5
M  ZZI  33 1
M  ZZM  34 5
M  ZZI  34 1
M  ZZM  35 5
M  ZZI  35 1
M  ZZM  36 5
M  ZZI  36 1
M  ZZM  37 5
M  ZZI  37 1
M  ZZM  38 5
M  ZZI  38 1
M  ZZM  39 5
M  ZZI  39 1
M  ZZM  40 5
M  ZZI  40 1
M  ZZM  41 5
M  ZZI  41 1
M  ZZM  42 5
M  ZZI  42 1
M  ZZM  43 5
M  ZZI  43 1
M  ZZM  44 5
M  ZZI  44 1
M  ZZM  45 5
M  ZZI  45 1
M  ZZM  46 5
M  ZZI  46 1
M  ZZM  47 5
M  ZZI  47 1
M  ZZM  48 5
M  ZZI  48 1
M  ZZM  49 5
M  ZZI  49 1
M  ZZM  50 5
M  ZZI  50 1
M  ZZM  51 28
M  ZZI  51 11
M  ZZM  52 28
M  ZZI  52 11
M  ZZM  53 28
M  ZZI  53 11
M  END
> <IX>
15

> <NAME>
35

> <Score>
-33.335124

> <Natom>
53

> <Nflex>
4

> <Hbond>
-5.212582

> <Hphob>
-6.72483

> <VwInt>
-43.451262

> <Dsolv>
19.746991

> <SolEl>
11.90683

> <Eintl>
4.568092

> <RecConf>
ND

> <projPath>
icm/

> <NAME_>
35

$$$$
12
  MOLSOFT 08042117143D

 54 57  0  0  1  0  0  0  0  0999 V2000
  -24.1062   16.3228  -32.0683 C   0  0  0  0  0  0  0  0  0  0  0  0
  -24.3485   17.5744  -31.5391 C   0  0  0  0  0  0  0  0  0  0  0  0
  -23.3796   15.3913  -31.3463 C   0  0  0  0  0  0  0  0  0  0  0  0
  -23.8565   17.8985  -30.2875 C   0  0  0  0  0  0  0  0  0  0  0  0
  -22.1505   14.7713  -29.3681 C   0  0  0  0  0  0  0  0  0  0  0  0
  -21.6238   15.1058  -28.1352 C   0  0  0  0  0  0  0  0  0  0  0  0
  -22.6111   17.2837  -28.3086 C   0  0  0  0  0  0  0  0  0  0  0  0
  -22.8860   15.7021  -30.0905 C   0  0  0  0  0  0  0  0  0  0  0  0
  -23.1231   16.9661  -29.5582 C   0  0  0  0  0  0  0  0  0  0  0  0
  -21.8411   16.3716  -27.5899 C   0  0  0  0  0  0  0  0  0  0  0  0
  -17.6195   23.8652  -24.7265 C   0  0  0  0  0  0  0  0  0  0  0  0
  -16.6567   23.2869  -25.4526 C   0  0  0  0  0  0  0  0  0  0  0  0
  -21.8721   15.1349  -21.7728 C   0  0  0  0  0  0  0  0  0  0  0  0
  -20.2739   13.9546  -23.1191 C   0  0  0  0  0  0  0  0  0  0  0  0
  -21.2302   15.0705  -22.9481 C   0  0  0  0  0  0  0  0  0  0  0  0
  -19.0332   23.4714  -24.8651 C   0  0  0  0  0  0  0  0  0  0  0  0
  -16.9465   22.2270  -26.4364 C   0  0  0  0  0  0  0  0  0  0  0  0
  -21.6385   14.1005  -20.7492 C   0  0  0  0  0  0  0  0  0  0  0  0
  -21.4856   16.1516  -23.9415 C   0  0  0  0  0  0  0  0  0  0  0  0
  -18.8327   19.5520  -26.6572 C   0  0  0  0  0  0  0  0  0  0  0  0
  -18.7526   20.8338  -27.4691 C   0  0  0  0  0  0  0  0  0  0  0  0
  -19.7421   17.2594  -26.5605 C   0  0  0  0  0  0  0  0  0  0  0  0
  -21.1933   16.8228  -26.2994 C   0  0  2  0  0  0  0  0  0  0  0  0
  -20.0133   13.0398  -22.2404 N   0  0  0  0  0  0  0  0  0  0  0  0
  -20.6946   13.1467  -21.0572 N   0  0  0  0  0  0  0  0  0  0  0  0
  -19.2946   22.5132  -25.8147 N   0  0  0  0  0  0  0  0  0  0  0  0
  -18.2889   21.9219  -26.6069 N   0  0  0  0  0  0  0  0  0  0  0  0
  -21.2292   15.8046  -25.2530 N   0  0  0  0  0  0  0  0  0  0  0  0
  -19.6155   18.5581  -27.2146 N   0  0  0  0  0  0  0  0  0  0  0  0
  -19.8950   23.9768  -24.1645 O   0  0  0  0  0  0  0  0  0  0  0  0
  -16.0265   21.6766  -27.0211 O   0  0  0  0  0  0  0  0  0  0  0  0
  -22.2618   14.1184  -19.6997 O   0  0  0  0  0  0  0  0  0  0  0  0
  -21.8822   17.2513  -23.5851 O   0  0  0  0  0  0  0  0  0  0  0  0
  -18.2107   19.3875  -25.6196 O   0  0  0  0  0  0  0  0  0  0  0  0
  -24.4854   16.0779  -33.0528 H   0  0  0  0  0  0  0  0  0  0  0  0
  -24.9207   18.3018  -32.1066 H   0  0  0  0  0  0  0  0  0  0  0  0
  -23.1850   14.4133  -31.7671 H   0  0  0  0  0  0  0  0  0  0  0  0
  -24.0543   18.8877  -29.8858 H   0  0  0  0  0  0  0  0  0  0  0  0
  -21.9598   13.7805  -29.7716 H   0  0  0  0  0  0  0  0  0  0  0  0
  -21.0165   14.3678  -27.6207 H   0  0  0  0  0  0  0  0  0  0  0  0
  -22.7915   18.2737  -27.8985 H   0  0  0  0  0  0  0  0  0  0  0  0
  -17.3921   24.6309  -23.9944 H   0  0  0  0  0  0  0  0  0  0  0  0
  -15.6187   23.5634  -25.3268 H   0  0  0  0  0  0  0  0  0  0  0  0
  -22.5828   15.9148  -21.5215 H   0  0  0  0  0  0  0  0  0  0  0  0
  -19.7295   13.9157  -24.0753 H   0  0  0  0  0  0  0  0  0  0  0  0
  -18.0358   20.6808  -28.2808 H   0  0  0  0  0  0  0  0  0  0  0  0
  -19.7280   21.0895  -27.8978 H   0  0  0  0  0  0  0  0  0  0  0  0
  -19.2092   17.2999  -25.6065 H   0  0  0  0  0  0  0  0  0  0  0  0
  -19.2150   16.5343  -27.1891 H   0  0  0  0  0  0  0  0  0  0  0  0
  -21.7504   17.6873  -25.9213 H   0  0  0  0  0  0  0  0  0  0  0  0
  -20.5043   12.4256  -20.3703 H   0  0  0  0  0  0  0  0  0  0  0  0
  -20.2524   22.2030  -25.9359 H   0  0  0  0  0  0  0  0  0  0  0  0
  -20.9947   14.8497  -25.4933 H   0  0  0  0  0  0  0  0  0  0  0  0
  -20.0210   18.6844  -28.1367 H   0  0  0  0  0  0  0  0  0  0  0  0
  1 35  1  0  0  0  0
  1  2  1  0  0  0  0
  1  3  2  0  0  0  0
  2 36  1  0  0  0  0
  2  4  2  0  0  0  0
  3  8  1  0  0  0  0
  3 37  1  0  0  0  0
  4 38  1  0  0  0  0
  4  9  1  0  0  0  0
  5  6  2  0  0  0  0
  5 39  1  0  0  0  0
  5  8  1  0  0  0  0
  6 10  1  0  0  0  0
  6 40  1  0  0  0  0
  7  9  1  0  0  0  0
  7 41  1  0  0  0  0
  7 10  2  0  0  0  0
  8  9  2  0  0  0  0
 23 10  1  0  0  0  0
 11 12  2  0  0  0  0
 11 42  1  0  0  0  0
 11 16  1  0  0  0  0
 12 17  1  0  0  0  0
 12 43  1  0  0  0  0
 13 15  2  0  0  0  0
 13 44  1  0  0  0  0
 13 18  1  0  0  0  0
 14 24  2  0  0  0  0
 14 45  1  0  0  0  0
 14 15  1  0  0  0  0
 15 19  1  0  0  0  0
 16 30  2  0  0  0  0
 16 26  1  0  0  0  0
 17 27  1  0  0  0  0
 17 31  2  0  0  0  0
 18 32  2  0  0  0  0
 18 25  1  0  0  0  0
 19 28  1  0  0  0  0
 19 33  2  0  0  0  0
 20 29  1  0  0  0  0
 20 34  2  0  0  0  0
 20 21  1  0  0  0  0
 21 46  1  0  0  0  0
 21 47  1  0  0  0  0
 21 27  1  0  0  0  0
 23 22  1  0  0  0  0
 22 48  1  0  0  0  0
 22 49  1  0  0  0  0
 22 29  1  0  0  0  0
 23 50  1  0  0  0  0
 23 28  1  0  0  0  0
 24 25  1  0  0  0  0
 25 51  1  0  0  0  0
 26 52  1  0  0  0  0
 26 27  1  0  0  0  0
 28 53  1  0  0  0  0
 29 54  1  0  0  0  0
M  ZZC   1 c1
M  ZZC   2 c2
M  ZZC   3 c3
M  ZZC   4 c4
M  ZZC   5 c5
M  ZZC   6 c6
M  ZZC   7 c7
M  ZZC   8 c8
M  ZZC   9 c9
M  ZZC  10 c10
M  ZZC  11 c11
M  ZZC  12 c12
M  ZZC  13 c13
M  ZZC  14 c14
M  ZZC  15 c15
M  ZZC  16 c16
M  ZZC  17 c17
M  ZZC  18 c18
M  ZZC  19 c19
M  ZZC  20 c20
M  ZZC  21 c21
M  ZZC  22 c22
M  ZZC  23 c23
M  ZZC  24 n1
M  ZZC  25 n2
M  ZZC  26 n3
M  ZZC  27 n4
M  ZZC  28 n5
M  ZZC  29 n6
M  ZZC  30 o1
M  ZZC  31 o2
M  ZZC  32 o3
M  ZZC  33 o4
M  ZZC  34 o5
M  ZZC  35 h1
M  ZZC  36 h2
M  ZZC  37 h3
M  ZZC  38 h4
M  ZZC  39 h5
M  ZZC  40 h6
M  ZZC  41 h7
M  ZZC  42 h8
M  ZZC  43 h9
M  ZZC  44 h10
M  ZZC  45 h11
M  ZZC  46 h12
M  ZZC  47 h13
M  ZZC  48 h14
M  ZZC  49 h15
M  ZZC  50 h16
M  ZZC  51 h17
M  ZZC  52 h18
M  ZZC  53 h19
M  ZZC  54 h20
M  ZZM   1 37
M  ZZI   1 125
M  ZZM   2 37
M  ZZI   2 125
M  ZZM   3 37
M  ZZI   3 125
M  ZZM   4 37
M  ZZI   4 125
M  ZZM   5 37
M  ZZI   5 125
M  ZZM   6 37
M  ZZI   6 125
M  ZZM   7 37
M  ZZI   7 125
M  ZZM   8 37
M  ZZI   8 124
M  ZZM   9 37
M  ZZI   9 124
M  ZZM  10 37
M  ZZI  10 124
M  ZZM  11 2
M  ZZI  11 120
M  ZZM  12 2
M  ZZI  12 120
M  ZZM  13 2
M  ZZI  13 120
M  ZZM  14 3
M  ZZI  14 121
M  ZZM  15 2
M  ZZI  15 120
M  ZZM  16 3
M  ZZI  16 121
M  ZZM  17 3
M  ZZI  17 121
M  ZZM  18 3
M  ZZI  18 121
M  ZZM  19 3
M  ZZI  19 121
M  ZZM  20 3
M  ZZI  20 121
M  ZZM  21 1
M  ZZI  21 112
M  ZZM  22 1
M  ZZI  22 112
M  ZZM  23 1
M  ZZI  23 113
M  ZZM  24 9
M  ZZI  24 220
M  ZZM  25 10
M  ZZI  25 191
M  ZZM  26 10
M  ZZI  26 191
M  ZZM  27 10
M  ZZI  27 192
M  ZZM  28 10
M  ZZI  28 211
M  ZZM  29 10
M  ZZI  29 211
M  ZZM  30 7
M  ZZI  30 81
M  ZZM  31 7
M  ZZI  31 81
M  ZZM  32 7
M  ZZI  32 81
M  ZZM  33 7
M  ZZI  33 81
M  ZZM  34 7
M  ZZI  34 81
M  ZZM  35 5
M  ZZI  35 1
M  ZZM  36 5
M  ZZI  36 1
M  ZZM  37 5
M  ZZI  37 1
M  ZZM  38 5
M  ZZI  38 1
M  ZZM  39 5
M  ZZI  39 1
M  ZZM  40 5
M  ZZI  40 1
M  ZZM  41 5
M  ZZI  41 1
M  ZZM  42 5
M  ZZI  42 1
M  ZZM  43 5
M  ZZI  43 1
M  ZZM  44 5
M  ZZI  44 1
M  ZZM  45 5
M  ZZI  45 1
M  ZZM  46 5
M  ZZI  46 1
M  ZZM  47 5
M  ZZI  47 1
M  ZZM  48 5
M  ZZI  48 1
M  ZZM  49 5
M  ZZI  49 1
M  ZZM  50 5
M  ZZI  50 1
M  ZZM  51 28
M  ZZI  51 11
M  ZZM  52 28
M  ZZI  52 11
M  ZZM  53 28
M  ZZI  53 11
M  ZZM  54 28
M  ZZI  54 11
M  END
> <IX>
16

> <NAME>
12

> <Score>
-31.080361

> <Natom>
54

> <Nflex>
6

> <Hbond>
-6.45893

> <Hphob>
-6.047197

> <VwInt>
-39.191266

> <Dsolv>
20.598722

> <SolEl>
7.185426

> <Eintl>
7.853663

> <RecConf>
ND

> <projPath>
icm/

> <NAME_>
12

$$$$
4
  MOLSOFT 08042117163D

 54 56  0  0  1  0  0  0  0  0999 V2000
  -20.7047   13.9006  -20.7101 C   0  0  0  0  0  0  0  0  0  0  0  0
  -19.5624   13.8924  -21.4847 C   0  0  0  0  0  0  0  0  0  0  0  0
  -21.8515   14.5019  -21.1900 C   0  0  0  0  0  0  0  0  0  0  0  0
  -19.5718   14.4558  -22.7469 C   0  0  0  0  0  0  0  0  0  0  0  0
  -21.8609   15.0725  -22.4513 C   0  0  0  0  0  0  0  0  0  0  0  0
  -20.7340   15.0313  -23.2666 C   0  0  0  0  0  0  0  0  0  0  0  0
  -20.9944   17.9890  -30.1536 C   0  0  0  0  0  0  0  0  0  0  0  0
  -22.2963   17.8299  -30.7259 C   0  0  0  0  0  0  0  0  0  0  0  0
  -17.0684   21.0799  -26.8802 C   0  0  0  0  0  0  0  0  0  0  0  0
  -20.3079   16.9173  -29.7584 C   0  0  0  0  0  0  0  0  0  0  0  0
  -16.4278   22.9846  -25.8820 C   0  0  0  0  0  0  0  0  0  0  0  0
  -18.2496   20.9994  -26.2518 C   0  0  0  0  0  0  0  0  0  0  0  0
  -22.8757   16.6298  -30.8612 C   0  0  0  0  0  0  0  0  0  0  0  0
  -18.5926   22.1150  -25.3245 C   0  0  0  0  0  0  0  0  0  0  0  0
  -22.1188   15.4163  -30.3704 C   0  0  0  0  0  0  0  0  0  0  0  0
  -19.1141   19.8526  -26.4330 C   0  0  0  0  0  0  0  0  0  0  0  0
  -19.5078   19.0815  -25.4063 C   0  0  0  0  0  0  0  0  0  0  0  0
  -20.2706   17.8371  -25.6685 C   0  0  0  0  0  0  0  0  0  0  0  0
  -20.0211   14.0287  -28.0624 C   0  0  0  0  0  0  0  0  0  0  0  0
  -19.9981   14.4994  -29.5067 C   0  0  0  0  0  0  0  0  0  0  0  0
  -20.2363   14.6004  -25.6888 C   0  0  0  0  0  0  0  0  0  0  0  0
  -20.7852   15.6185  -24.6639 C   0  0  2  0  0  0  0  0  0  0  0  0
  -16.1122   22.0437  -26.7121 N   0  0  0  0  0  0  0  0  0  0  0  0
  -17.6090   23.0536  -25.1958 N   0  0  0  0  0  0  0  0  0  0  0  0
  -20.8389   15.6485  -29.8573 N   0  0  0  0  0  0  0  0  0  0  0  0
  -24.1187   16.4322  -31.4345 N   0  0  0  0  0  0  0  0  0  0  0  0
  -20.0909   16.9032  -24.6731 N   0  0  0  0  0  0  0  0  0  0  0  0
  -20.4105   14.9380  -27.0963 N   0  0  0  0  0  0  0  0  0  0  0  0
  -19.6596   22.1838  -24.7341 O   0  0  0  0  0  0  0  0  0  0  0  0
  -22.6268   14.3036  -30.4566 O   0  0  0  0  0  0  0  0  0  0  0  0
  -20.9508   17.6787  -26.6714 O   0  0  0  0  0  0  0  0  0  0  0  0
  -19.5950   12.9197  -27.7806 O   0  0  0  0  0  0  0  0  0  0  0  0
  -20.6982   13.4435  -19.7255 H   0  0  0  0  0  0  0  0  0  0  0  0
  -18.6545   13.4380  -21.1034 H   0  0  0  0  0  0  0  0  0  0  0  0
  -22.7467   14.5229  -20.5767 H   0  0  0  0  0  0  0  0  0  0  0  0
  -18.6532   14.4320  -23.3251 H   0  0  0  0  0  0  0  0  0  0  0  0
  -22.7694   15.5484  -22.8046 H   0  0  0  0  0  0  0  0  0  0  0  0
  -20.5770   18.9861  -30.0716 H   0  0  0  0  0  0  0  0  0  0  0  0
  -22.8012   18.7252  -31.0710 H   0  0  0  0  0  0  0  0  0  0  0  0
  -16.7812   20.2899  -27.5645 H   0  0  0  0  0  0  0  0  0  0  0  0
  -19.3076   17.0112  -29.3448 H   0  0  0  0  0  0  0  0  0  0  0  0
  -15.7424   23.8144  -25.6588 H   0  0  0  0  0  0  0  0  0  0  0  0
  -19.3414   19.5691  -27.4569 H   0  0  0  0  0  0  0  0  0  0  0  0
  -19.2452   19.3081  -24.3786 H   0  0  0  0  0  0  0  0  0  0  0  0
  -18.9591   14.7317  -29.7655 H   0  0  0  0  0  0  0  0  0  0  0  0
  -20.2986   13.6444  -30.1213 H   0  0  0  0  0  0  0  0  0  0  0  0
  -19.1630   14.4487  -25.5471 H   0  0  0  0  0  0  0  0  0  0  0  0
  -20.7111   13.6244  -25.5357 H   0  0  0  0  0  0  0  0  0  0  0  0
  -21.8287   15.8243  -24.9316 H   0  0  0  0  0  0  0  0  0  0  0  0
  -17.7768   23.8250  -24.5614 H   0  0  0  0  0  0  0  0  0  0  0  0
  -24.4729   15.4812  -31.5243 H   0  0  0  0  0  0  0  0  0  0  0  0
  -24.6563   17.2205  -31.7897 H   0  0  0  0  0  0  0  0  0  0  0  0
  -19.4773   17.1234  -23.8927 H   0  0  0  0  0  0  0  0  0  0  0  0
  -20.7517   15.8620  -27.3568 H   0  0  0  0  0  0  0  0  0  0  0  0
  1 33  1  0  0  0  0
  1  2  1  0  0  0  0
  1  3  2  0  0  0  0
  2 34  1  0  0  0  0
  2  4  2  0  0  0  0
  3  5  1  0  0  0  0
  3 35  1  0  0  0  0
  4 36  1  0  0  0  0
  4  6  1  0  0  0  0
  5  6  2  0  0  0  0
  5 37  1  0  0  0  0
 22  6  1  0  0  0  0
  7 10  2  0  0  0  0
  7 38  1  0  0  0  0
  7  8  1  0  0  0  0
  8 39  1  0  0  0  0
  8 13  2  0  0  0  0
  9 23  1  0  0  0  0
  9 40  1  0  0  0  0
  9 12  2  0  0  0  0
 10 25  1  0  0  0  0
 10 41  1  0  0  0  0
 11 24  1  0  0  0  0
 11 42  1  0  0  0  0
 11 23  2  0  0  0  0
 12 16  1  0  0  0  0
 12 14  1  0  0  0  0
 13 15  1  0  0  0  0
 13 26  1  0  0  0  0
 14 29  2  0  0  0  0
 14 24  1  0  0  0  0
 15 30  2  0  0  0  0
 15 25  1  0  0  0  0
 16 17  2  0  0  0  0
 16 43  1  0  0  0  0
 17 18  1  0  0  0  0
 17 44  1  0  0  0  0
 18 27  1  0  0  0  0
 18 31  2  0  0  0  0
 19 28  1  0  0  0  0
 19 32  2  0  0  0  0
 19 20  1  0  0  0  0
 20 45  1  0  0  0  0
 20 46  1  0  0  0  0
 20 25  1  0  0  0  0
 22 21  1  0  0  0  0
 21 47  1  0  0  0  0
 21 48  1  0  0  0  0
 21 28  1  0  0  0  0
 22 49  1  0  0  0  0
 22 27  1  0  0  0  0
 24 50  1  0  0  0  0
 26 51  1  0  0  0  0
 26 52  1  0  0  0  0
 27 53  1  0  0  0  0
 28 54  1  0  0  0  0
M  ZZC   1 c1
M  ZZC   2 c2
M  ZZC   3 c3
M  ZZC   4 c4
M  ZZC   5 c5
M  ZZC   6 c6
M  ZZC   7 c7
M  ZZC   8 c8
M  ZZC   9 c9
M  ZZC  10 c10
M  ZZC  11 c11
M  ZZC  12 c12
M  ZZC  13 c13
M  ZZC  14 c14
M  ZZC  15 c15
M  ZZC  16 c16
M  ZZC  17 c17
M  ZZC  18 c18
M  ZZC  19 c19
M  ZZC  20 c20
M  ZZC  21 c21
M  ZZC  22 c22
M  ZZC  23 n1
M  ZZC  24 n2
M  ZZC  25 n3
M  ZZC  26 n4
M  ZZC  27 n5
M  ZZC  28 n6
M  ZZC  29 o1
M  ZZC  30 o2
M  ZZC  31 o3
M  ZZC  32 o4
M  ZZC  33 h1
M  ZZC  34 h2
M  ZZC  35 h3
M  ZZC  36 h4
M  ZZC  37 h5
M  ZZC  38 h6
M  ZZC  39 h7
M  ZZC  40 h8
M  ZZC  41 h9
M  ZZC  42 h10
M  ZZC  43 h11
M  ZZC  44 h12
M  ZZC  45 h13
M  ZZC  46 h14
M  ZZC  47 h15
M  ZZC  48 h16
M  ZZC  49 h17
M  ZZC  50 h18
M  ZZC  51 h19
M  ZZC  52 h20
M  ZZC  53 h21
M  ZZC  54 h22
M  ZZM   1 37
M  ZZI   1 125
M  ZZM   2 37
M  ZZI   2 125
M  ZZM   3 37
M  ZZI   3 125
M  ZZM   4 37
M  ZZI   4 125
M  ZZM   5 37
M  ZZI   5 125
M  ZZM   6 37
M  ZZI   6 124
M  ZZM   7 2
M  ZZI   7 120
M  ZZM   8 2
M  ZZI   8 120
M  ZZM   9 2
M  ZZI   9 120
M  ZZM  10 2
M  ZZI  10 120
M  ZZM  11 3
M  ZZI  11 121
M  ZZM  12 2
M  ZZI  12 120
M  ZZM  13 2
M  ZZI  13 120
M  ZZM  14 3
M  ZZI  14 121
M  ZZM  15 3
M  ZZI  15 121
M  ZZM  16 2
M  ZZI  16 120
M  ZZM  17 2
M  ZZI  17 120
M  ZZM  18 3
M  ZZI  18 121
M  ZZM  19 3
M  ZZI  19 121
M  ZZM  20 1
M  ZZI  20 112
M  ZZM  21 1
M  ZZI  21 112
M  ZZM  22 1
M  ZZI  22 113
M  ZZM  23 9
M  ZZI  23 220
M  ZZM  24 10
M  ZZI  24 191
M  ZZM  25 10
M  ZZI  25 192
M  ZZM  26 40
M  ZZI  26 224
M  ZZM  27 10
M  ZZI  27 211
M  ZZM  28 10
M  ZZI  28 211
M  ZZM  29 7
M  ZZI  29 81
M  ZZM  30 7
M  ZZI  30 81
M  ZZM  31 7
M  ZZI  31 81
M  ZZM  32 7
M  ZZI  32 81
M  ZZM  33 5
M  ZZI  33 1
M  ZZM  34 5
M  ZZI  34 1
M  ZZM  35 5
M  ZZI  35 1
M  ZZM  36 5
M  ZZI  36 1
M  ZZM  37 5
M  ZZI  37 1
M  ZZM  38 5
M  ZZI  38 1
M  ZZM  39 5
M  ZZI  39 1
M  ZZM  40 5
M  ZZI  40 1
M  ZZM  41 5
M  ZZI  41 1
M  ZZM  42 5
M  ZZI  42 1
M  ZZM  43 5
M  ZZI  43 1
M  ZZM  44 5
M  ZZI  44 1
M  ZZM  45 5
M  ZZI  45 1
M  ZZM  46 5
M  ZZI  46 1
M  ZZM  47 5
M  ZZI  47 1
M  ZZM  48 5
M  ZZI  48 1
M  ZZM  49 5
M  ZZI  49 1
M  ZZM  50 28
M  ZZI  50 11
M  ZZM  51 28
M  ZZI  51 11
M  ZZM  52 28
M  ZZI  52 11
M  ZZM  53 28
M  ZZI  53 11
M  ZZM  54 28
M  ZZI  54 11
M  END
> <IX>
17

> <NAME>
4

> <Score>
-26.374824

> <Natom>
54

> <Nflex>
6

> <Hbond>
-2.898567

> <Hphob>
-6.025015

> <VwInt>
-44.393144

> <Dsolv>
19.344854

> <SolEl>
11.139968

> <Eintl>
6.545727

> <RecConf>
ND

> <projPath>
icm/

> <NAME_>
4

$$$$
31
  MOLSOFT 08042117183D

 54 57  0  0  1  0  0  0  0  0999 V2000
  -22.0024   13.7429  -19.5497 C   0  0  0  0  0  0  0  0  0  0  0  0
  -23.0207   14.5984  -19.9189 C   0  0  0  0  0  0  0  0  0  0  0  0
  -20.8490   13.6702  -20.3103 C   0  0  0  0  0  0  0  0  0  0  0  0
  -22.8935   15.3736  -21.0570 C   0  0  0  0  0  0  0  0  0  0  0  0
  -19.5676   14.3676  -22.2351 C   0  0  0  0  0  0  0  0  0  0  0  0
  -19.4599   15.1153  -23.3917 C   0  0  0  0  0  0  0  0  0  0  0  0
  -21.6352   16.0309  -23.0187 C   0  0  0  0  0  0  0  0  0  0  0  0
  -20.7160   14.4380  -21.4606 C   0  0  0  0  0  0  0  0  0  0  0  0
  -21.7511   15.2871  -21.8477 C   0  0  0  0  0  0  0  0  0  0  0  0
  -20.4869   15.9596  -23.8092 C   0  0  0  0  0  0  0  0  0  0  0  0
  -17.4611   23.8579  -24.8484 C   0  0  0  0  0  0  0  0  0  0  0  0
  -16.5818   23.1451  -25.5608 C   0  0  0  0  0  0  0  0  0  0  0  0
  -19.7562   13.9547  -28.7899 C   0  0  0  0  0  0  0  0  0  0  0  0
  -21.2838   12.6662  -29.8493 C   0  0  0  0  0  0  0  0  0  0  0  0
  -20.6845   14.8086  -28.3393 C   0  0  0  0  0  0  0  0  0  0  0  0
  -18.9041   23.5697  -24.8934 C   0  0  0  0  0  0  0  0  0  0  0  0
  -16.9929   22.0157  -26.4169 C   0  0  0  0  0  0  0  0  0  0  0  0
  -22.3954   13.6104  -29.4615 C   0  0  0  0  0  0  0  0  0  0  0  0
  -20.2369   15.9289  -27.4688 C   0  0  0  0  0  0  0  0  0  0  0  0
  -19.2505   19.5475  -26.1135 C   0  0  0  0  0  0  0  0  0  0  0  0
  -18.9533   20.6191  -27.1513 C   0  0  0  0  0  0  0  0  0  0  0  0
  -21.0042   18.1147  -25.1050 C   0  0  0  0  0  0  0  0  0  0  0  0
  -20.3370   16.7181  -25.1149 C   0  0  2  0  0  0  0  0  0  0  0  0
  -20.0317   12.8412  -29.5380 N   0  0  0  0  0  0  0  0  0  0  0  0
  -22.0099   14.6387  -28.6435 N   0  0  0  0  0  0  0  0  0  0  0  0
  -19.2794   22.5366  -25.7180 N   0  0  0  0  0  0  0  0  0  0  0  0
  -18.3588   21.7698  -26.4644 N   0  0  0  0  0  0  0  0  0  0  0  0
  -20.8036   15.8778  -26.2111 N   0  0  0  0  0  0  0  0  0  0  0  0
  -20.5348   19.0322  -26.1395 N   0  0  0  0  0  0  0  0  0  0  0  0
  -19.6916   24.2233  -24.2292 O   0  0  0  0  0  0  0  0  0  0  0  0
  -16.1361   21.3725  -27.0030 O   0  0  0  0  0  0  0  0  0  0  0  0
  -23.5164   13.4027  -29.8977 O   0  0  0  0  0  0  0  0  0  0  0  0
  -19.4177   16.7490  -27.8561 O   0  0  0  0  0  0  0  0  0  0  0  0
  -18.4150   19.1780  -25.3040 O   0  0  0  0  0  0  0  0  0  0  0  0
  -22.1046   13.1287  -18.6606 H   0  0  0  0  0  0  0  0  0  0  0  0
  -23.9216   14.6611  -19.3167 H   0  0  0  0  0  0  0  0  0  0  0  0
  -20.0573   12.9961  -19.9983 H   0  0  0  0  0  0  0  0  0  0  0  0
  -23.7056   16.0424  -21.3246 H   0  0  0  0  0  0  0  0  0  0  0  0
  -18.7420   13.7232  -21.9475 H   0  0  0  0  0  0  0  0  0  0  0  0
  -18.5513   15.0268  -23.9773 H   0  0  0  0  0  0  0  0  0  0  0  0
  -22.4609   16.6677  -23.3198 H   0  0  0  0  0  0  0  0  0  0  0  0
  -17.1450   24.6676  -24.2020 H   0  0  0  0  0  0  0  0  0  0  0  0
  -15.5218   23.3559  -25.5108 H   0  0  0  0  0  0  0  0  0  0  0  0
  -18.7069   14.0964  -28.5476 H   0  0  0  0  0  0  0  0  0  0  0  0
  -21.6091   11.7918  -30.4282 H   0  0  0  0  0  0  0  0  0  0  0  0
  -18.2482   20.2078  -27.8801 H   0  0  0  0  0  0  0  0  0  0  0  0
  -19.8598   20.9388  -27.6771 H   0  0  0  0  0  0  0  0  0  0  0  0
  -22.0895   18.0331  -25.2281 H   0  0  0  0  0  0  0  0  0  0  0  0
  -20.8166   18.6128  -24.1467 H   0  0  0  0  0  0  0  0  0  0  0  0
  -19.2672   16.8665  -25.2722 H   0  0  0  0  0  0  0  0  0  0  0  0
  -22.7080   15.3026  -28.3251 H   0  0  0  0  0  0  0  0  0  0  0  0
  -20.2649   22.3074  -25.7833 H   0  0  0  0  0  0  0  0  0  0  0  0
  -21.4750   15.1460  -26.0006 H   0  0  0  0  0  0  0  0  0  0  0  0
  -21.1808   19.3106  -26.8701 H   0  0  0  0  0  0  0  0  0  0  0  0
  1 35  1  0  0  0  0
  1  2  1  0  0  0  0
  1  3  2  0  0  0  0
  2 36  1  0  0  0  0
  2  4  2  0  0  0  0
  3  8  1  0  0  0  0
  3 37  1  0  0  0  0
  4 38  1  0  0  0  0
  4  9  1  0  0  0  0
  5  6  2  0  0  0  0
  5 39  1  0  0  0  0
  5  8  1  0  0  0  0
  6 10  1  0  0  0  0
  6 40  1  0  0  0  0
  7  9  1  0  0  0  0
  7 41  1  0  0  0  0
  7 10  2  0  0  0  0
  8  9  2  0  0  0  0
 23 10  1  0  0  0  0
 11 12  2  0  0  0  0
 11 42  1  0  0  0  0
 11 16  1  0  0  0  0
 12 17  1  0  0  0  0
 12 43  1  0  0  0  0
 13 15  2  0  0  0  0
 13 44  1  0  0  0  0
 13 24  1  0  0  0  0
 14 24  2  0  0  0  0
 14 45  1  0  0  0  0
 14 18  1  0  0  0  0
 15 19  1  0  0  0  0
 15 25  1  0  0  0  0
 16 30  2  0  0  0  0
 16 26  1  0  0  0  0
 17 27  1  0  0  0  0
 17 31  2  0  0  0  0
 18 32  2  0  0  0  0
 18 25  1  0  0  0  0
 19 28  1  0  0  0  0
 19 33  2  0  0  0  0
 20 29  1  0  0  0  0
 20 34  2  0  0  0  0
 20 21  1  0  0  0  0
 21 46  1  0  0  0  0
 21 47  1  0  0  0  0
 21 27  1  0  0  0  0
 23 22  1  0  0  0  0
 22 48  1  0  0  0  0
 22 49  1  0  0  0  0
 22 29  1  0  0  0  0
 23 50  1  0  0  0  0
 23 28  1  0  0  0  0
 25 51  1  0  0  0  0
 26 52  1  0  0  0  0
 26 27  1  0  0  0  0
 28 53  1  0  0  0  0
 29 54  1  0  0  0  0
M  ZZC   1 c1
M  ZZC   2 c2
M  ZZC   3 c3
M  ZZC   4 c4
M  ZZC   5 c5
M  ZZC   6 c6
M  ZZC   7 c7
M  ZZC   8 c8
M  ZZC   9 c9
M  ZZC  10 c10
M  ZZC  11 c11
M  ZZC  12 c12
M  ZZC  13 c13
M  ZZC  14 c14
M  ZZC  15 c15
M  ZZC  16 c16
M  ZZC  17 c17
M  ZZC  18 c18
M  ZZC  19 c19
M  ZZC  20 c20
M  ZZC  21 c21
M  ZZC  22 c22
M  ZZC  23 c23
M  ZZC  24 n1
M  ZZC  25 n2
M  ZZC  26 n3
M  ZZC  27 n4
M  ZZC  28 n5
M  ZZC  29 n6
M  ZZC  30 o1
M  ZZC  31 o2
M  ZZC  32 o3
M  ZZC  33 o4
M  ZZC  34 o5
M  ZZC  35 h1
M  ZZC  36 h2
M  ZZC  37 h3
M  ZZC  38 h4
M  ZZC  39 h5
M  ZZC  40 h6
M  ZZC  41 h7
M  ZZC  42 h8
M  ZZC  43 h9
M  ZZC  44 h10
M  ZZC  45 h11
M  ZZC  46 h12
M  ZZC  47 h13
M  ZZC  48 h14
M  ZZC  49 h15
M  ZZC  50 h16
M  ZZC  51 h17
M  ZZC  52 h18
M  ZZC  53 h19
M  ZZC  54 h20
M  ZZM   1 37
M  ZZI   1 125
M  ZZM   2 37
M  ZZI   2 125
M  ZZM   3 37
M  ZZI   3 125
M  ZZM   4 37
M  ZZI   4 125
M  ZZM   5 37
M  ZZI   5 125
M  ZZM   6 37
M  ZZI   6 125
M  ZZM   7 37
M  ZZI   7 125
M  ZZM   8 37
M  ZZI   8 124
M  ZZM   9 37
M  ZZI   9 124
M  ZZM  10 37
M  ZZI  10 124
M  ZZM  11 2
M  ZZI  11 120
M  ZZM  12 2
M  ZZI  12 120
M  ZZM  13 2
M  ZZI  13 120
M  ZZM  14 3
M  ZZI  14 121
M  ZZM  15 2
M  ZZI  15 120
M  ZZM  16 3
M  ZZI  16 121
M  ZZM  17 3
M  ZZI  17 121
M  ZZM  18 3
M  ZZI  18 121
M  ZZM  19 3
M  ZZI  19 121
M  ZZM  20 3
M  ZZI  20 121
M  ZZM  21 1
M  ZZI  21 112
M  ZZM  22 1
M  ZZI  22 112
M  ZZM  23 1
M  ZZI  23 113
M  ZZM  24 9
M  ZZI  24 220
M  ZZM  25 10
M  ZZI  25 191
M  ZZM  26 10
M  ZZI  26 191
M  ZZM  27 10
M  ZZI  27 192
M  ZZM  28 10
M  ZZI  28 211
M  ZZM  29 10
M  ZZI  29 211
M  ZZM  30 7
M  ZZI  30 81
M  ZZM  31 7
M  ZZI  31 81
M  ZZM  32 7
M  ZZI  32 81
M  ZZM  33 7
M  ZZI  33 81
M  ZZM  34 7
M  ZZI  34 81
M  ZZM  35 5
M  ZZI  35 1
M  ZZM  36 5
M  ZZI  36 1
M  ZZM  37 5
M  ZZI  37 1
M  ZZM  38 5
M  ZZI  38 1
M  ZZM  39 5
M  ZZI  39 1
M  ZZM  40 5
M  ZZI  40 1
M  ZZM  41 5
M  ZZI  41 1
M  ZZM  42 5
M  ZZI  42 1
M  ZZM  43 5
M  ZZI  43 1
M  ZZM  44 5
M  ZZI  44 1
M  ZZM  45 5
M  ZZI  45 1
M  ZZM  46 5
M  ZZI  46 1
M  ZZM  47 5
M  ZZI  47 1
M  ZZM  48 5
M  ZZI  48 1
M  ZZM  49 5
M  ZZI  49 1
M  ZZM  50 5
M  ZZI  50 1
M  ZZM  51 28
M  ZZI  51 11
M  ZZM  52 28
M  ZZI  52 11
M  ZZM  53 28
M  ZZI  53 11
M  ZZM  54 28
M  ZZI  54 11
M  END
> <IX>
18

> <NAME>
31

> <Score>
-34.276181

> <Natom>
54

> <Nflex>
6

> <Hbond>
-5.324256

> <Hphob>
-5.71408

> <VwInt>
-44.988724

> <Dsolv>
18.90908

> <SolEl>
7.537421

> <Eintl>
8.758058

> <RecConf>
ND

> <projPath>
icm/

> <NAME_>
31

$$$$
28
  MOLSOFT 08042117193D

 56 59  0  0  1  0  0  0  0  0999 V2000
  -23.3965   15.1479  -30.8451 C   0  0  0  0  0  0  0  0  0  0  0  0
  -22.4719   16.1109  -31.2143 C   0  0  0  0  0  0  0  0  0  0  0  0
  -23.1802   14.3577  -29.7267 C   0  0  0  0  0  0  0  0  0  0  0  0
  -21.3246   16.2996  -30.4642 C   0  0  0  0  0  0  0  0  0  0  0  0
  -22.0339   14.5628  -28.9819 C   0  0  0  0  0  0  0  0  0  0  0  0
  -21.1141   15.5112  -29.3434 C   0  0  0  0  0  0  0  0  0  0  0  0
  -21.9971   15.2071  -20.5618 C   0  0  0  0  0  0  0  0  0  0  0  0
  -21.5908   13.9661  -20.8488 C   0  0  0  0  0  0  0  0  0  0  0  0
  -21.4838   16.3294  -21.2851 C   0  0  0  0  0  0  0  0  0  0  0  0
  -19.5217   21.7984  -25.7914 C   0  0  0  0  0  0  0  0  0  0  0  0
  -20.6427   16.1323  -22.3013 C   0  0  0  0  0  0  0  0  0  0  0  0
  -18.4629   21.2741  -26.4283 C   0  0  0  0  0  0  0  0  0  0  0  0
  -20.6073   13.7394  -21.9409 C   0  0  0  0  0  0  0  0  0  0  0  0
  -17.1676   21.9891  -26.2435 C   0  0  0  0  0  0  0  0  0  0  0  0
  -18.3987   23.5000  -24.8282 C   0  0  0  0  0  0  0  0  0  0  0  0
  -18.5547   20.1300  -27.3160 C   0  0  0  0  0  0  0  0  0  0  0  0
  -19.3161   19.0430  -27.0918 C   0  0  0  0  0  0  0  0  0  0  0  0
  -19.3372   17.9454  -28.0966 C   0  0  0  0  0  0  0  0  0  0  0  0
  -20.1338   14.9290  -25.1498 C   0  0  0  0  0  0  0  0  0  0  0  0
  -21.6598   13.8829  -27.7131 C   0  0  0  0  0  0  0  0  0  0  0  0
  -19.9542   15.5604  -28.3982 C   0  0  2  0  0  0  0  0  0  0  0  0
  -20.1750   14.2487  -27.5902 C   0  0  1  0  0  0  0  0  0  0  0  0
  -18.3027   24.7328  -23.9710 C   0  0  0  0  0  0  0  0  0  0  0  0
  -19.3733   14.6993  -23.8438 C   0  0  0  0  0  0  0  0  0  0  0  0
  -19.5334   22.8965  -24.9761 N   0  0  0  0  0  0  0  0  0  0  0  0
  -17.2354   23.0874  -25.4301 N   0  0  0  0  0  0  0  0  0  0  0  0
  -20.2277   14.8664  -22.6636 N   0  0  0  0  0  0  0  0  0  0  0  0
  -19.9395   16.7970  -27.6246 N   0  0  0  0  0  0  0  0  0  0  0  0
  -19.6585   14.1826  -26.2173 N   0  0  0  0  0  0  0  0  0  0  0  0
  -20.1988   12.6059  -22.1435 O   0  0  0  0  0  0  0  0  0  0  0  0
  -16.1218   21.6181  -26.7558 O   0  0  0  0  0  0  0  0  0  0  0  0
  -18.8675   18.0748  -29.2173 O   0  0  0  0  0  0  0  0  0  0  0  0
  -21.0326   15.7519  -25.2585 O   0  0  0  0  0  0  0  0  0  0  0  0
  -24.2982   15.0311  -31.4338 H   0  0  0  0  0  0  0  0  0  0  0  0
  -22.6475   16.7216  -32.0943 H   0  0  0  0  0  0  0  0  0  0  0  0
  -23.8963   13.6011  -29.4330 H   0  0  0  0  0  0  0  0  0  0  0  0
  -20.6088   17.0601  -30.7550 H   0  0  0  0  0  0  0  0  0  0  0  0
  -22.7172   15.3874  -19.7710 H   0  0  0  0  0  0  0  0  0  0  0  0
  -21.9521   13.1010  -20.3073 H   0  0  0  0  0  0  0  0  0  0  0  0
  -21.8009   17.3271  -21.0033 H   0  0  0  0  0  0  0  0  0  0  0  0
  -20.5001   21.3459  -25.9157 H   0  0  0  0  0  0  0  0  0  0  0  0
  -20.2577   16.9678  -22.8790 H   0  0  0  0  0  0  0  0  0  0  0  0
  -17.9425   20.1888  -28.2106 H   0  0  0  0  0  0  0  0  0  0  0  0
  -19.9184   18.9268  -26.1978 H   0  0  0  0  0  0  0  0  0  0  0  0
  -22.2717   14.2685  -26.8918 H   0  0  0  0  0  0  0  0  0  0  0  0
  -21.8000   12.7992  -27.7761 H   0  0  0  0  0  0  0  0  0  0  0  0
  -19.0140   15.4963  -28.9594 H   0  0  0  0  0  0  0  0  0  0  0  0
  -19.6222   13.4627  -28.1218 H   0  0  0  0  0  0  0  0  0  0  0  0
  -18.8292   25.5531  -24.4673 H   0  0  0  0  0  0  0  0  0  0  0  0
  -17.2621   25.0231  -23.8028 H   0  0  0  0  0  0  0  0  0  0  0  0
  -18.7841   24.5454  -23.0072 H   0  0  0  0  0  0  0  0  0  0  0  0
  -18.9527   13.6902  -23.8477 H   0  0  0  0  0  0  0  0  0  0  0  0
  -18.5395   15.4052  -23.7822 H   0  0  0  0  0  0  0  0  0  0  0  0
  -16.3745   23.5957  -25.2697 H   0  0  0  0  0  0  0  0  0  0  0  0
  -20.4259   16.8062  -26.7327 H   0  0  0  0  0  0  0  0  0  0  0  0
  -18.9235   13.5058  -26.0397 H   0  0  0  0  0  0  0  0  0  0  0  0
  1 34  1  0  0  0  0
  1  2  1  0  0  0  0
  1  3  2  0  0  0  0
  2 35  1  0  0  0  0
  2  4  2  0  0  0  0
  3  5  1  0  0  0  0
  3 36  1  0  0  0  0
  4 37  1  0  0  0  0
  4  6  1  0  0  0  0
  5 20  1  0  0  0  0
  5  6  2  0  0  0  0
 21  6  1  0  0  0  0
  7  9  1  0  0  0  0
  7 38  1  0  0  0  0
  7  8  2  0  0  0  0
  8 39  1  0  0  0  0
  8 13  1  0  0  0  0
  9 11  2  0  0  0  0
  9 40  1  0  0  0  0
 10 12  2  0  0  0  0
 10 41  1  0  0  0  0
 10 25  1  0  0  0  0
 11 27  1  0  0  0  0
 11 42  1  0  0  0  0
 12 16  1  0  0  0  0
 12 14  1  0  0  0  0
 13 30  2  0  0  0  0
 13 27  1  0  0  0  0
 14 26  1  0  0  0  0
 14 31  2  0  0  0  0
 15 25  2  0  0  0  0
 15 23  1  0  0  0  0
 15 26  1  0  0  0  0
 16 17  2  0  0  0  0
 16 43  1  0  0  0  0
 17 18  1  0  0  0  0
 17 44  1  0  0  0  0
 18 28  1  0  0  0  0
 18 32  2  0  0  0  0
 19 29  1  0  0  0  0
 19 33  2  0  0  0  0
 19 24  1  0  0  0  0
 22 20  1  0  0  0  0
 20 45  1  0  0  0  0
 20 46  1  0  0  0  0
 21 47  1  0  0  0  0
 21 22  1  0  0  0  0
 21 28  1  0  0  0  0
 22 48  1  0  0  0  0
 22 29  1  0  0  0  0
 23 49  1  0  0  0  0
 23 50  1  0  0  0  0
 23 51  1  0  0  0  0
 24 52  1  0  0  0  0
 24 53  1  0  0  0  0
 24 27  1  0  0  0  0
 26 54  1  0  0  0  0
 28 55  1  0  0  0  0
 29 56  1  0  0  0  0
M  ZZC   1 c1
M  ZZC   2 c2
M  ZZC   3 c3
M  ZZC   4 c4
M  ZZC   5 c5
M  ZZC   6 c6
M  ZZC   7 c7
M  ZZC   8 c8
M  ZZC   9 c9
M  ZZC  10 c10
M  ZZC  11 c11
M  ZZC  12 c12
M  ZZC  13 c13
M  ZZC  14 c14
M  ZZC  15 c15
M  ZZC  16 c16
M  ZZC  17 c17
M  ZZC  18 c18
M  ZZC  19 c19
M  ZZC  20 c20
M  ZZC  21 c21
M  ZZC  22 c22
M  ZZC  23 c23
M  ZZC  24 c24
M  ZZC  25 n1
M  ZZC  26 n2
M  ZZC  27 n3
M  ZZC  28 n4
M  ZZC  29 n5
M  ZZC  30 o1
M  ZZC  31 o2
M  ZZC  32 o3
M  ZZC  33 o4
M  ZZC  34 h1
M  ZZC  35 h2
M  ZZC  36 h3
M  ZZC  37 h4
M  ZZC  38 h5
M  ZZC  39 h6
M  ZZC  40 h7
M  ZZC  41 h8
M  ZZC  42 h9
M  ZZC  43 h10
M  ZZC  44 h11
M  ZZC  45 h12
M  ZZC  46 h13
M  ZZC  47 h14
M  ZZC  48 h15
M  ZZC  49 h16
M  ZZC  50 h17
M  ZZC  51 h18
M  ZZC  52 h19
M  ZZC  53 h20
M  ZZC  54 h21
M  ZZC  55 h22
M  ZZC  56 h23
M  ZZM   1 37
M  ZZI   1 125
M  ZZM   2 37
M  ZZI   2 125
M  ZZM   3 37
M  ZZI   3 125
M  ZZM   4 37
M  ZZI   4 125
M  ZZM   5 37
M  ZZI   5 124
M  ZZM   6 37
M  ZZI   6 124
M  ZZM   7 2
M  ZZI   7 120
M  ZZM   8 2
M  ZZI   8 120
M  ZZM   9 2
M  ZZI   9 120
M  ZZM  10 2
M  ZZI  10 120
M  ZZM  11 2
M  ZZI  11 120
M  ZZM  12 2
M  ZZI  12 120
M  ZZM  13 3
M  ZZI  13 121
M  ZZM  14 3
M  ZZI  14 121
M  ZZM  15 3
M  ZZI  15 121
M  ZZM  16 2
M  ZZI  16 120
M  ZZM  17 2
M  ZZI  17 120
M  ZZM  18 3
M  ZZI  18 121
M  ZZM  19 3
M  ZZI  19 121
M  ZZM  20 1
M  ZZI  20 112
M  ZZM  21 1
M  ZZI  21 113
M  ZZM  22 1
M  ZZI  22 113
M  ZZM  23 1
M  ZZI  23 111
M  ZZM  24 1
M  ZZI  24 112
M  ZZM  25 9
M  ZZI  25 220
M  ZZM  26 10
M  ZZI  26 191
M  ZZM  27 10
M  ZZI  27 192
M  ZZM  28 10
M  ZZI  28 211
M  ZZM  29 10
M  ZZI  29 211
M  ZZM  30 7
M  ZZI  30 81
M  ZZM  31 7
M  ZZI  31 81
M  ZZM  32 7
M  ZZI  32 81
M  ZZM  33 7
M  ZZI  33 81
M  ZZM  34 5
M  ZZI  34 1
M  ZZM  35 5
M  ZZI  35 1
M  ZZM  36 5
M  ZZI  36 1
M  ZZM  37 5
M  ZZI  37 1
M  ZZM  38 5
M  ZZI  38 1
M  ZZM  39 5
M  ZZI  39 1
M  ZZM  40 5
M  ZZI  40 1
M  ZZM  41 5
M  ZZI  41 1
M  ZZM  42 5
M  ZZI  42 1
M  ZZM  43 5
M  ZZI  43 1
M  ZZM  44 5
M  ZZI  44 1
M  ZZM  45 5
M  ZZI  45 1
M  ZZM  46 5
M  ZZI  46 1
M  ZZM  47 5
M  ZZI  47 1
M  ZZM  48 5
M  ZZI  48 1
M  ZZM  49 5
M  ZZI  49 1
M  ZZM  50 5
M  ZZI  50 1
M  ZZM  51 5
M  ZZI  51 1
M  ZZM  52 5
M  ZZI  52 1
M  ZZM  53 5
M  ZZI  53 1
M  ZZM  54 28
M  ZZI  54 11
M  ZZM  55 28
M  ZZI  55 11
M  ZZM  56 28
M  ZZI  56 11
M  END
> <IX>
19

> <NAME>
28

> <Score>
-42.243307

> <Natom>
56

> <Nflex>
4

> <Hbond>
-6.829603

> <Hphob>
-6.593264

> <VwInt>
-45.031185

> <Dsolv>
18.906579

> <SolEl>
8.164646

> <Eintl>
4.192768

> <RecConf>
ND

> <projPath>
icm/

> <NAME_>
28

$$$$
0
  MOLSOFT 08042117213D

 55 58  0  0  1  0  0  0  0  0999 V2000
  -21.6011   13.0025  -29.9190 C   0  0  0  0  0  0  0  0  0  0  0  0
  -22.7459   13.7699  -29.8506 C   0  0  0  0  0  0  0  0  0  0  0  0
  -20.6616   13.0725  -28.9082 C   0  0  0  0  0  0  0  0  0  0  0  0
  -22.9597   14.5915  -28.7612 C   0  0  0  0  0  0  0  0  0  0  0  0
  -19.9559   13.9449  -26.7649 C   0  0  0  0  0  0  0  0  0  0  0  0
  -20.1746   14.7600  -25.6709 C   0  0  0  0  0  0  0  0  0  0  0  0
  -22.2544   15.4593  -26.6143 C   0  0  0  0  0  0  0  0  0  0  0  0
  -20.8770   13.8823  -27.7996 C   0  0  0  0  0  0  0  0  0  0  0  0
  -22.0376   14.6469  -27.7220 C   0  0  0  0  0  0  0  0  0  0  0  0
  -21.3277   15.5345  -25.5787 C   0  0  0  0  0  0  0  0  0  0  0  0
  -17.1950   23.3652  -25.3558 C   0  0  0  0  0  0  0  0  0  0  0  0
  -18.4625   23.4769  -24.9344 C   0  0  0  0  0  0  0  0  0  0  0  0
  -21.4266   14.1462  -20.6543 C   0  0  0  0  0  0  0  0  0  0  0  0
  -23.5979   15.0808  -20.1441 C   0  0  0  0  0  0  0  0  0  0  0  0
  -21.4516   13.4346  -19.5311 C   0  0  0  0  0  0  0  0  0  0  0  0
  -22.5398   15.0054  -20.9744 C   0  0  0  0  0  0  0  0  0  0  0  0
  -16.7828   22.2993  -26.2910 C   0  0  0  0  0  0  0  0  0  0  0  0
  -19.5090   22.5195  -25.3478 C   0  0  0  0  0  0  0  0  0  0  0  0
  -23.6267   14.2728  -18.8968 C   0  0  0  0  0  0  0  0  0  0  0  0
  -22.6544   15.8251  -22.2321 C   0  0  0  0  0  0  0  0  0  0  0  0
  -19.6360   19.2621  -25.7839 C   0  0  0  0  0  0  0  0  0  0  0  0
  -19.9639   20.4494  -26.6746 C   0  0  0  0  0  0  0  0  0  0  0  0
  -20.5950   17.5774  -24.2516 C   0  0  0  0  0  0  0  0  0  0  0  0
  -21.6076   16.4298  -24.3877 C   0  0  2  0  0  0  0  0  0  0  0  0
  -22.5218   13.4908  -18.6766 N   0  0  0  0  0  0  0  0  0  0  0  0
  -17.7924   21.5019  -26.7672 N   0  0  0  0  0  0  0  0  0  0  0  0
  -19.1123   21.5693  -26.2795 N   0  0  0  0  0  0  0  0  0  0  0  0
  -21.6403   15.6613  -23.1540 N   0  0  0  0  0  0  0  0  0  0  0  0
  -20.7394   18.6158  -25.2617 N   0  0  0  0  0  0  0  0  0  0  0  0
  -15.6122   22.1600  -26.5959 O   0  0  0  0  0  0  0  0  0  0  0  0
  -20.6309   22.6021  -24.8694 O   0  0  0  0  0  0  0  0  0  0  0  0
  -24.5787   14.3260  -18.1357 O   0  0  0  0  0  0  0  0  0  0  0  0
  -23.6112   16.5603  -22.4357 O   0  0  0  0  0  0  0  0  0  0  0  0
  -18.4895   18.9132  -25.5436 O   0  0  0  0  0  0  0  0  0  0  0  0
  -21.4418   12.3500  -30.7691 H   0  0  0  0  0  0  0  0  0  0  0  0
  -23.4713   13.7389  -30.6564 H   0  0  0  0  0  0  0  0  0  0  0  0
  -19.7498   12.4943  -28.9986 H   0  0  0  0  0  0  0  0  0  0  0  0
  -23.8566   15.1983  -28.7274 H   0  0  0  0  0  0  0  0  0  0  0  0
  -19.0550   13.3427  -26.8037 H   0  0  0  0  0  0  0  0  0  0  0  0
  -19.4310   14.7761  -24.8801 H   0  0  0  0  0  0  0  0  0  0  0  0
  -23.1634   16.0517  -26.5563 H   0  0  0  0  0  0  0  0  0  0  0  0
  -16.4232   24.0472  -25.0234 H   0  0  0  0  0  0  0  0  0  0  0  0
  -18.7608   24.2610  -24.2481 H   0  0  0  0  0  0  0  0  0  0  0  0
  -20.5575   14.0687  -21.2940 H   0  0  0  0  0  0  0  0  0  0  0  0
  -24.4756   15.6900  -20.3320 H   0  0  0  0  0  0  0  0  0  0  0  0
  -20.6335   12.7813  -19.2439 H   0  0  0  0  0  0  0  0  0  0  0  0
  -19.7898   20.1884  -27.7240 H   0  0  0  0  0  0  0  0  0  0  0  0
  -21.0145   20.7340  -26.5546 H   0  0  0  0  0  0  0  0  0  0  0  0
  -20.7455   18.0862  -23.2934 H   0  0  0  0  0  0  0  0  0  0  0  0
  -19.5657   17.2058  -24.2393 H   0  0  0  0  0  0  0  0  0  0  0  0
  -22.5995   16.8731  -24.5261 H   0  0  0  0  0  0  0  0  0  0  0  0
  -22.5135   12.9243  -17.8359 H   0  0  0  0  0  0  0  0  0  0  0  0
  -17.5564   20.7521  -27.4111 H   0  0  0  0  0  0  0  0  0  0  0  0
  -20.8891   15.0102  -22.9812 H   0  0  0  0  0  0  0  0  0  0  0  0
  -21.6712   18.9725  -25.4499 H   0  0  0  0  0  0  0  0  0  0  0  0
  1 35  1  0  0  0  0
  1  2  1  0  0  0  0
  1  3  2  0  0  0  0
  2 36  1  0  0  0  0
  2  4  2  0  0  0  0
  3  8  1  0  0  0  0
  3 37  1  0  0  0  0
  4 38  1  0  0  0  0
  4  9  1  0  0  0  0
  5  6  2  0  0  0  0
  5 39  1  0  0  0  0
  5  8  1  0  0  0  0
  6 10  1  0  0  0  0
  6 40  1  0  0  0  0
  7  9  1  0  0  0  0
  7 41  1  0  0  0  0
  7 10  2  0  0  0  0
  8  9  2  0  0  0  0
 24 10  1  0  0  0  0
 11 12  2  0  0  0  0
 11 42  1  0  0  0  0
 11 17  1  0  0  0  0
 12 18  1  0  0  0  0
 12 43  1  0  0  0  0
 13 16  1  0  0  0  0
 13 44  1  0  0  0  0
 13 15  2  0  0  0  0
 14 19  1  0  0  0  0
 14 45  1  0  0  0  0
 14 16  2  0  0  0  0
 15 46  1  0  0  0  0
 15 25  1  0  0  0  0
 16 20  1  0  0  0  0
 17 30  2  0  0  0  0
 17 26  1  0  0  0  0
 18 27  1  0  0  0  0
 18 31  2  0  0  0  0
 19 25  1  0  0  0  0
 19 32  2  0  0  0  0
 20 28  1  0  0  0  0
 20 33  2  0  0  0  0
 21 29  1  0  0  0  0
 21 34  2  0  0  0  0
 21 22  1  0  0  0  0
 22 47  1  0  0  0  0
 22 48  1  0  0  0  0
 22 27  1  0  0  0  0
 24 23  1  0  0  0  0
 23 49  1  0  0  0  0
 23 50  1  0  0  0  0
 23 29  1  0  0  0  0
 24 51  1  0  0  0  0
 24 28  1  0  0  0  0
 25 52  1  0  0  0  0
 26 53  1  0  0  0  0
 26 27  1  0  0  0  0
 28 54  1  0  0  0  0
 29 55  1  0  0  0  0
M  ZZC   1 c1
M  ZZC   2 c2
M  ZZC   3 c3
M  ZZC   4 c4
M  ZZC   5 c5
M  ZZC   6 c6
M  ZZC   7 c7
M  ZZC   8 c8
M  ZZC   9 c9
M  ZZC  10 c10
M  ZZC  11 c11
M  ZZC  12 c12
M  ZZC  13 c13
M  ZZC  14 c14
M  ZZC  15 c15
M  ZZC  16 c16
M  ZZC  17 c17
M  ZZC  18 c18
M  ZZC  19 c19
M  ZZC  20 c20
M  ZZC  21 c21
M  ZZC  22 c22
M  ZZC  23 c23
M  ZZC  24 c24
M  ZZC  25 n1
M  ZZC  26 n2
M  ZZC  27 n3
M  ZZC  28 n4
M  ZZC  29 n5
M  ZZC  30 o1
M  ZZC  31 o2
M  ZZC  32 o3
M  ZZC  33 o4
M  ZZC  34 o5
M  ZZC  35 h1
M  ZZC  36 h2
M  ZZC  37 h3
M  ZZC  38 h4
M  ZZC  39 h5
M  ZZC  40 h6
M  ZZC  41 h7
M  ZZC  42 h8
M  ZZC  43 h9
M  ZZC  44 h10
M  ZZC  45 h11
M  ZZC  46 h12
M  ZZC  47 h13
M  ZZC  48 h14
M  ZZC  49 h15
M  ZZC  50 h16
M  ZZC  51 h17
M  ZZC  52 h18
M  ZZC  53 h19
M  ZZC  54 h20
M  ZZC  55 h21
M  ZZM   1 37
M  ZZI   1 125
M  ZZM   2 37
M  ZZI   2 125
M  ZZM   3 37
M  ZZI   3 125
M  ZZM   4 37
M  ZZI   4 125
M  ZZM   5 37
M  ZZI   5 125
M  ZZM   6 37
M  ZZI   6 125
M  ZZM   7 37
M  ZZI   7 125
M  ZZM   8 37
M  ZZI   8 124
M  ZZM   9 37
M  ZZI   9 124
M  ZZM  10 37
M  ZZI  10 124
M  ZZM  11 2
M  ZZI  11 120
M  ZZM  12 2
M  ZZI  12 120
M  ZZM  13 2
M  ZZI  13 120
M  ZZM  14 2
M  ZZI  14 120
M  ZZM  15 2
M  ZZI  15 120
M  ZZM  16 2
M  ZZI  16 120
M  ZZM  17 3
M  ZZI  17 121
M  ZZM  18 3
M  ZZI  18 121
M  ZZM  19 3
M  ZZI  19 121
M  ZZM  20 3
M  ZZI  20 121
M  ZZM  21 3
M  ZZI  21 121
M  ZZM  22 1
M  ZZI  22 112
M  ZZM  23 1
M  ZZI  23 112
M  ZZM  24 1
M  ZZI  24 113
M  ZZM  25 10
M  ZZI  25 191
M  ZZM  26 10
M  ZZI  26 191
M  ZZM  27 10
M  ZZI  27 192
M  ZZM  28 10
M  ZZI  28 211
M  ZZM  29 10
M  ZZI  29 211
M  ZZM  30 7
M  ZZI  30 81
M  ZZM  31 7
M  ZZI  31 81
M  ZZM  32 7
M  ZZI  32 81
M  ZZM  33 7
M  ZZI  33 81
M  ZZM  34 7
M  ZZI  34 81
M  ZZM  35 5
M  ZZI  35 1
M  ZZM  36 5
M  ZZI  36 1
M  ZZM  37 5
M  ZZI  37 1
M  ZZM  38 5
M  ZZI  38 1
M  ZZM  39 5
M  ZZI  39 1
M  ZZM  40 5
M  ZZI  40 1
M  ZZM  41 5
M  ZZI  41 1
M  ZZM  42 5
M  ZZI  42 1
M  ZZM  43 5
M  ZZI  43 1
M  ZZM  44 5
M  ZZI  44 1
M  ZZM  45 5
M  ZZI  45 1
M  ZZM  46 5
M  ZZI  46 1
M  ZZM  47 5
M  ZZI  47 1
M  ZZM  48 5
M  ZZI  48 1
M  ZZM  49 5
M  ZZI  49 1
M  ZZM  50 5
M  ZZI  50 1
M  ZZM  51 5
M  ZZI  51 1
M  ZZM  52 28
M  ZZI  52 11
M  ZZM  53 28
M  ZZI  53 11
M  ZZM  54 28
M  ZZI  54 11
M  ZZM  55 28
M  ZZI  55 11
M  END
> <IX>
20

> <NAME>
0

> <Score>
-34.04343

> <Natom>
55

> <Nflex>
6

> <Hbond>
-5.32081

> <Hphob>
-6.545772

> <VwInt>
-40.115872

> <Dsolv>
16.339136

> <SolEl>
4.578449

> <Eintl>
8.406052

> <RecConf>
ND

> <projPath>
icm/

> <NAME_>
0

$$$$
32
  MOLSOFT 08042117223D

 55 58  0  0  1  0  0  0  0  0999 V2000
  -22.0264   13.3479  -18.9393 C   0  0  0  0  0  0  0  0  0  0  0  0
  -23.1061   14.0486  -19.4359 C   0  0  0  0  0  0  0  0  0  0  0  0
  -20.8370   13.3112  -19.6486 C   0  0  0  0  0  0  0  0  0  0  0  0
  -22.9961   14.7111  -20.6435 C   0  0  0  0  0  0  0  0  0  0  0  0
  -19.5273   13.9391  -21.5813 C   0  0  0  0  0  0  0  0  0  0  0  0
  -19.4113   14.6226  -22.7772 C   0  0  0  0  0  0  0  0  0  0  0  0
  -21.6892   15.3308  -22.5823 C   0  0  0  0  0  0  0  0  0  0  0  0
  -20.7176   13.9665  -20.8658 C   0  0  0  0  0  0  0  0  0  0  0  0
  -21.8080   14.6684  -21.3687 C   0  0  0  0  0  0  0  0  0  0  0  0
  -20.4839   15.3467  -23.2874 C   0  0  0  0  0  0  0  0  0  0  0  0
  -22.1415   15.4049  -28.9495 C   0  0  0  0  0  0  0  0  0  0  0  0
  -22.6966   14.6339  -29.8921 C   0  0  0  0  0  0  0  0  0  0  0  0
  -16.9169   23.3785  -25.3203 C   0  0  0  0  0  0  0  0  0  0  0  0
  -18.1241   23.7049  -24.8452 C   0  0  0  0  0  0  0  0  0  0  0  0
  -20.8110   13.5809  -28.1196 C   0  0  0  0  0  0  0  0  0  0  0  0
  -21.1741   14.8664  -28.0291 C   0  0  0  0  0  0  0  0  0  0  0  0
  -22.2987   13.2069  -29.9965 C   0  0  0  0  0  0  0  0  0  0  0  0
  -16.7115   22.1968  -26.1756 C   0  0  0  0  0  0  0  0  0  0  0  0
  -19.3181   22.8825  -25.1286 C   0  0  0  0  0  0  0  0  0  0  0  0
  -20.5339   15.7397  -27.0110 C   0  0  0  0  0  0  0  0  0  0  0  0
  -20.3080   19.8229  -25.0157 C   0  0  0  0  0  0  0  0  0  0  0  0
  -20.1292   20.7690  -26.1920 C   0  0  0  0  0  0  0  0  0  0  0  0
  -21.0083   17.5227  -24.4244 C   0  0  0  0  0  0  0  0  0  0  0  0
  -20.3229   16.1451  -24.5640 C   0  0  2  0  0  0  0  0  0  0  0  0
  -21.3635   12.7754  -29.0829 N   0  0  0  0  0  0  0  0  0  0  0  0
  -17.8163   21.4202  -26.4063 N   0  0  0  0  0  0  0  0  0  0  0  0
  -19.0849   21.7424  -25.8862 N   0  0  0  0  0  0  0  0  0  0  0  0
  -20.8087   15.3752  -25.7074 N   0  0  0  0  0  0  0  0  0  0  0  0
  -20.5684   18.5195  -25.3880 N   0  0  0  0  0  0  0  0  0  0  0  0
  -22.7907   12.4980  -30.8572 O   0  0  0  0  0  0  0  0  0  0  0  0
  -15.6065   21.9442  -26.6220 O   0  0  0  0  0  0  0  0  0  0  0  0
  -20.4073   23.2274  -24.6938 O   0  0  0  0  0  0  0  0  0  0  0  0
  -19.8862   16.7208  -27.3480 O   0  0  0  0  0  0  0  0  0  0  0  0
  -20.2702   20.1986  -23.8524 O   0  0  0  0  0  0  0  0  0  0  0  0
  -22.1070   12.8255  -17.9914 H   0  0  0  0  0  0  0  0  0  0  0  0
  -24.0363   14.0814  -18.8778 H   0  0  0  0  0  0  0  0  0  0  0  0
  -19.9991   12.7540  -19.2410 H   0  0  0  0  0  0  0  0  0  0  0  0
  -23.8512   15.2736  -21.0048 H   0  0  0  0  0  0  0  0  0  0  0  0
  -18.6671   13.3966  -21.2022 H   0  0  0  0  0  0  0  0  0  0  0  0
  -18.4607   14.6007  -23.3025 H   0  0  0  0  0  0  0  0  0  0  0  0
  -22.5506   15.8646  -22.9705 H   0  0  0  0  0  0  0  0  0  0  0  0
  -22.4154   16.4519  -28.8687 H   0  0  0  0  0  0  0  0  0  0  0  0
  -23.4230   15.0116  -30.6016 H   0  0  0  0  0  0  0  0  0  0  0  0
  -16.0389   23.9676  -25.0973 H   0  0  0  0  0  0  0  0  0  0  0  0
  -18.2670   24.5761  -24.2170 H   0  0  0  0  0  0  0  0  0  0  0  0
  -20.0716   13.1186  -27.4710 H   0  0  0  0  0  0  0  0  0  0  0  0
  -19.8804   20.2275  -27.1117 H   0  0  0  0  0  0  0  0  0  0  0  0
  -21.0786   21.2916  -26.3440 H   0  0  0  0  0  0  0  0  0  0  0  0
  -22.0928   17.4385  -24.5568 H   0  0  0  0  0  0  0  0  0  0  0  0
  -20.8380   17.9263  -23.4207 H   0  0  0  0  0  0  0  0  0  0  0  0
  -19.2556   16.3232  -24.7301 H   0  0  0  0  0  0  0  0  0  0  0  0
  -21.0759   11.8061  -29.1513 H   0  0  0  0  0  0  0  0  0  0  0  0
  -17.7195   20.6007  -26.9982 H   0  0  0  0  0  0  0  0  0  0  0  0
  -21.3844   14.5583  -25.5286 H   0  0  0  0  0  0  0  0  0  0  0  0
  -20.5360   18.2499  -26.3688 H   0  0  0  0  0  0  0  0  0  0  0  0
  1 35  1  0  0  0  0
  1  2  1  0  0  0  0
  1  3  2  0  0  0  0
  2 36  1  0  0  0  0
  2  4  2  0  0  0  0
  3  8  1  0  0  0  0
  3 37  1  0  0  0  0
  4 38  1  0  0  0  0
  4  9  1  0  0  0  0
  5  6  2  0  0  0  0
  5 39  1  0  0  0  0
  5  8  1  0  0  0  0
  6 10  1  0  0  0  0
  6 40  1  0  0  0  0
  7  9  1  0  0  0  0
  7 41  1  0  0  0  0
  7 10  2  0  0  0  0
  8  9  2  0  0  0  0
 24 10  1  0  0  0  0
 11 16  1  0  0  0  0
 11 42  1  0  0  0  0
 11 12  2  0  0  0  0
 12 43  1  0  0  0  0
 12 17  1  0  0  0  0
 13 14  2  0  0  0  0
 13 44  1  0  0  0  0
 13 18  1  0  0  0  0
 14 19  1  0  0  0  0
 14 45  1  0  0  0  0
 15 25  1  0  0  0  0
 15 46  1  0  0  0  0
 15 16  2  0  0  0  0
 16 20  1  0  0  0  0
 17 30  2  0  0  0  0
 17 25  1  0  0  0  0
 18 31  2  0  0  0  0
 18 26  1  0  0  0  0
 19 27  1  0  0  0  0
 19 32  2  0  0  0  0
 20 28  1  0  0  0  0
 20 33  2  0  0  0  0
 21 29  1  0  0  0  0
 21 34  2  0  0  0  0
 21 22  1  0  0  0  0
 22 47  1  0  0  0  0
 22 48  1  0  0  0  0
 22 27  1  0  0  0  0
 24 23  1  0  0  0  0
 23 49  1  0  0  0  0
 23 50  1  0  0  0  0
 23 29  1  0  0  0  0
 24 51  1  0  0  0  0
 24 28  1  0  0  0  0
 25 52  1  0  0  0  0
 26 53  1  0  0  0  0
 26 27  1  0  0  0  0
 28 54  1  0  0  0  0
 29 55  1  0  0  0  0
M  ZZC   1 c1
M  ZZC   2 c2
M  ZZC   3 c3
M  ZZC   4 c4
M  ZZC   5 c5
M  ZZC   6 c6
M  ZZC   7 c7
M  ZZC   8 c8
M  ZZC   9 c9
M  ZZC  10 c10
M  ZZC  11 c11
M  ZZC  12 c12
M  ZZC  13 c13
M  ZZC  14 c14
M  ZZC  15 c15
M  ZZC  16 c16
M  ZZC  17 c17
M  ZZC  18 c18
M  ZZC  19 c19
M  ZZC  20 c20
M  ZZC  21 c21
M  ZZC  22 c22
M  ZZC  23 c23
M  ZZC  24 c24
M  ZZC  25 n1
M  ZZC  26 n2
M  ZZC  27 n3
M  ZZC  28 n4
M  ZZC  29 n5
M  ZZC  30 o1
M  ZZC  31 o2
M  ZZC  32 o3
M  ZZC  33 o4
M  ZZC  34 o5
M  ZZC  35 h1
M  ZZC  36 h2
M  ZZC  37 h3
M  ZZC  38 h4
M  ZZC  39 h5
M  ZZC  40 h6
M  ZZC  41 h7
M  ZZC  42 h8
M  ZZC  43 h9
M  ZZC  44 h10
M  ZZC  45 h11
M  ZZC  46 h12
M  ZZC  47 h13
M  ZZC  48 h14
M  ZZC  49 h15
M  ZZC  50 h16
M  ZZC  51 h17
M  ZZC  52 h18
M  ZZC  53 h19
M  ZZC  54 h20
M  ZZC  55 h21
M  ZZM   1 37
M  ZZI   1 125
M  ZZM   2 37
M  ZZI   2 125
M  ZZM   3 37
M  ZZI   3 125
M  ZZM   4 37
M  ZZI   4 125
M  ZZM   5 37
M  ZZI   5 125
M  ZZM   6 37
M  ZZI   6 125
M  ZZM   7 37
M  ZZI   7 125
M  ZZM   8 37
M  ZZI   8 124
M  ZZM   9 37
M  ZZI   9 124
M  ZZM  10 37
M  ZZI  10 124
M  ZZM  11 2
M  ZZI  11 120
M  ZZM  12 2
M  ZZI  12 120
M  ZZM  13 2
M  ZZI  13 120
M  ZZM  14 2
M  ZZI  14 120
M  ZZM  15 2
M  ZZI  15 120
M  ZZM  16 2
M  ZZI  16 120
M  ZZM  17 3
M  ZZI  17 121
M  ZZM  18 3
M  ZZI  18 121
M  ZZM  19 3
M  ZZI  19 121
M  ZZM  20 3
M  ZZI  20 121
M  ZZM  21 3
M  ZZI  21 121
M  ZZM  22 1
M  ZZI  22 112
M  ZZM  23 1
M  ZZI  23 112
M  ZZM  24 1
M  ZZI  24 113
M  ZZM  25 10
M  ZZI  25 191
M  ZZM  26 10
M  ZZI  26 191
M  ZZM  27 10
M  ZZI  27 192
M  ZZM  28 10
M  ZZI  28 211
M  ZZM  29 10
M  ZZI  29 211
M  ZZM  30 7
M  ZZI  30 81
M  ZZM  31 7
M  ZZI  31 81
M  ZZM  32 7
M  ZZI  32 81
M  ZZM  33 7
M  ZZI  33 81
M  ZZM  34 7
M  ZZI  34 81
M  ZZM  35 5
M  ZZI  35 1
M  ZZM  36 5
M  ZZI  36 1
M  ZZM  37 5
M  ZZI  37 1
M  ZZM  38 5
M  ZZI  38 1
M  ZZM  39 5
M  ZZI  39 1
M  ZZM  40 5
M  ZZI  40 1
M  ZZM  41 5
M  ZZI  41 1
M  ZZM  42 5
M  ZZI  42 1
M  ZZM  43 5
M  ZZI  43 1
M  ZZM  44 5
M  ZZI  44 1
M  ZZM  45 5
M  ZZI  45 1
M  ZZM  46 5
M  ZZI  46 1
M  ZZM  47 5
M  ZZI  47 1
M  ZZM  48 5
M  ZZI  48 1
M  ZZM  49 5
M  ZZI  49 1
M  ZZM  50 5
M  ZZI  50 1
M  ZZM  51 5
M  ZZI  51 1
M  ZZM  52 28
M  ZZI  52 11
M  ZZM  53 28
M  ZZI  53 11
M  ZZM  54 28
M  ZZI  54 11
M  ZZM  55 28
M  ZZI  55 11
M  END
> <IX>
21

> <NAME>
32

> <Score>
-36.529374

> <Natom>
55

> <Nflex>
6

> <Hbond>
-6.476867

> <Hphob>
-6.201177

> <VwInt>
-43.558663

> <Dsolv>
17.333177

> <SolEl>
9.399593

> <Eintl>
7.944896

> <RecConf>
ND

> <projPath>
icm/

> <NAME_>
32

$$$$
44
  MOLSOFT 08042117233D

 52 54  0  0  1  0  0  0  0  0999 V2000
  -21.4772   13.1827  -29.2161 C   0  0  0  0  0  0  0  0  0  0  0  0
  -22.3356   13.6214  -28.2271 C   0  0  0  0  0  0  0  0  0  0  0  0
  -20.2075   13.7179  -29.2978 C   0  0  0  0  0  0  0  0  0  0  0  0
  -21.9256   14.5808  -27.3166 C   0  0  0  0  0  0  0  0  0  0  0  0
  -19.7941   14.6741  -28.3890 C   0  0  0  0  0  0  0  0  0  0  0  0
  -20.6330   15.1089  -27.3617 C   0  0  0  0  0  0  0  0  0  0  0  0
  -17.5198   22.9680  -25.5122 C   0  0  0  0  0  0  0  0  0  0  0  0
  -18.8148   22.9374  -25.1756 C   0  0  0  0  0  0  0  0  0  0  0  0
  -22.8737   14.0174  -18.9940 C   0  0  0  0  0  0  0  0  0  0  0  0
  -24.5898   15.2863  -18.2894 C   0  0  0  0  0  0  0  0  0  0  0  0
  -22.7555   14.5951  -20.2020 C   0  0  0  0  0  0  0  0  0  0  0  0
  -16.9416   21.9716  -26.4351 C   0  0  0  0  0  0  0  0  0  0  0  0
  -19.7374   21.8999  -25.6890 C   0  0  0  0  0  0  0  0  0  0  0  0
  -23.7608   15.6653  -20.5101 C   0  0  0  0  0  0  0  0  0  0  0  0
  -21.7247   14.1495  -21.1282 C   0  0  0  0  0  0  0  0  0  0  0  0
  -21.3806   14.7297  -22.2904 C   0  0  0  0  0  0  0  0  0  0  0  0
  -20.3031   14.0987  -23.1047 C   0  0  0  0  0  0  0  0  0  0  0  0
  -19.5745   18.5679  -26.4593 C   0  0  0  0  0  0  0  0  0  0  0  0
  -19.9306   19.8733  -27.1568 C   0  0  0  0  0  0  0  0  0  0  0  0
  -20.5793   15.8891  -24.9068 C   0  0  0  0  0  0  0  0  0  0  0  0
  -20.1222   16.1347  -26.3626 C   0  0  2  0  0  0  0  0  0  0  0  0
  -23.7753   14.3233  -18.0097 N   0  0  0  0  0  0  0  0  0  0  0  0
  -24.6046   15.9600  -19.4784 N   0  0  0  0  0  0  0  0  0  0  0  0
  -17.8232   21.0649  -26.9732 N   0  0  0  0  0  0  0  0  0  0  0  0
  -19.1829   21.0019  -26.5910 N   0  0  0  0  0  0  0  0  0  0  0  0
  -20.0186   14.6688  -24.3282 N   0  0  0  0  0  0  0  0  0  0  0  0
  -20.3899   17.4994  -26.8148 N   0  0  0  0  0  0  0  0  0  0  0  0
  -15.7467   21.9781  -26.6807 O   0  0  0  0  0  0  0  0  0  0  0  0
  -20.9008   21.8828  -25.3131 O   0  0  0  0  0  0  0  0  0  0  0  0
  -23.8622   16.2144  -21.5977 O   0  0  0  0  0  0  0  0  0  0  0  0
  -19.6968   13.1103  -22.7228 O   0  0  0  0  0  0  0  0  0  0  0  0
  -18.6212   18.4665  -25.6991 O   0  0  0  0  0  0  0  0  0  0  0  0
  -21.8000   12.4300  -29.9286 H   0  0  0  0  0  0  0  0  0  0  0  0
  -23.3356   13.2069  -28.1621 H   0  0  0  0  0  0  0  0  0  0  0  0
  -19.5302   13.3903  -30.0782 H   0  0  0  0  0  0  0  0  0  0  0  0
  -22.6336   14.8984  -26.5590 H   0  0  0  0  0  0  0  0  0  0  0  0
  -18.7920   15.0775  -28.4933 H   0  0  0  0  0  0  0  0  0  0  0  0
  -16.8462   23.7197  -25.1164 H   0  0  0  0  0  0  0  0  0  0  0  0
  -19.2343   23.6702  -24.4963 H   0  0  0  0  0  0  0  0  0  0  0  0
  -22.1876   13.2230  -18.7142 H   0  0  0  0  0  0  0  0  0  0  0  0
  -25.3530   15.6288  -17.5714 H   0  0  0  0  0  0  0  0  0  0  0  0
  -21.1887   13.2554  -20.8191 H   0  0  0  0  0  0  0  0  0  0  0  0
  -21.8497   15.6340  -22.6500 H   0  0  0  0  0  0  0  0  0  0  0  0
  -19.7008   19.7895  -28.2248 H   0  0  0  0  0  0  0  0  0  0  0  0
  -21.0049   20.0539  -27.0448 H   0  0  0  0  0  0  0  0  0  0  0  0
  -20.2521   16.7120  -24.2624 H   0  0  0  0  0  0  0  0  0  0  0  0
  -21.6699   15.8556  -24.8266 H   0  0  0  0  0  0  0  0  0  0  0  0
  -19.0375   16.0342  -26.3576 H   0  0  0  0  0  0  0  0  0  0  0  0
  -25.2923   16.6846  -19.6388 H   0  0  0  0  0  0  0  0  0  0  0  0
  -17.4678   20.3656  -27.6189 H   0  0  0  0  0  0  0  0  0  0  0  0
  -19.2880   14.1839  -24.8387 H   0  0  0  0  0  0  0  0  0  0  0  0
  -21.1950   17.6549  -27.4133 H   0  0  0  0  0  0  0  0  0  0  0  0
  1 33  1  0  0  0  0
  1  2  1  0  0  0  0
  1  3  2  0  0  0  0
  2 34  1  0  0  0  0
  2  4  2  0  0  0  0
  3  5  1  0  0  0  0
  3 35  1  0  0  0  0
  4 36  1  0  0  0  0
  4  6  1  0  0  0  0
  5  6  2  0  0  0  0
  5 37  1  0  0  0  0
 21  6  1  0  0  0  0
  7  8  2  0  0  0  0
  7 38  1  0  0  0  0
  7 12  1  0  0  0  0
  8 13  1  0  0  0  0
  8 39  1  0  0  0  0
  9 22  1  0  0  0  0
  9 40  1  0  0  0  0
  9 11  2  0  0  0  0
 10 23  1  0  0  0  0
 10 41  1  0  0  0  0
 10 22  2  0  0  0  0
 11 15  1  0  0  0  0
 11 14  1  0  0  0  0
 12 28  2  0  0  0  0
 12 24  1  0  0  0  0
 13 25  1  0  0  0  0
 13 29  2  0  0  0  0
 14 30  2  0  0  0  0
 14 23  1  0  0  0  0
 15 16  2  0  0  0  0
 15 42  1  0  0  0  0
 16 17  1  0  0  0  0
 16 43  1  0  0  0  0
 17 26  1  0  0  0  0
 17 31  2  0  0  0  0
 18 27  1  0  0  0  0
 18 32  2  0  0  0  0
 18 19  1  0  0  0  0
 19 44  1  0  0  0  0
 19 45  1  0  0  0  0
 19 25  1  0  0  0  0
 21 20  1  0  0  0  0
 20 46  1  0  0  0  0
 20 47  1  0  0  0  0
 20 26  1  0  0  0  0
 21 48  1  0  0  0  0
 21 27  1  0  0  0  0
 23 49  1  0  0  0  0
 24 50  1  0  0  0  0
 24 25  1  0  0  0  0
 26 51  1  0  0  0  0
 27 52  1  0  0  0  0
M  ZZC   1 c1
M  ZZC   2 c2
M  ZZC   3 c3
M  ZZC   4 c4
M  ZZC   5 c5
M  ZZC   6 c6
M  ZZC   7 c7
M  ZZC   8 c8
M  ZZC   9 c9
M  ZZC  10 c10
M  ZZC  11 c11
M  ZZC  12 c12
M  ZZC  13 c13
M  ZZC  14 c14
M  ZZC  15 c15
M  ZZC  16 c16
M  ZZC  17 c17
M  ZZC  18 c18
M  ZZC  19 c19
M  ZZC  20 c20
M  ZZC  21 c21
M  ZZC  22 n1
M  ZZC  23 n2
M  ZZC  24 n3
M  ZZC  25 n4
M  ZZC  26 n5
M  ZZC  27 n6
M  ZZC  28 o1
M  ZZC  29 o2
M  ZZC  30 o3
M  ZZC  31 o4
M  ZZC  32 o5
M  ZZC  33 h1
M  ZZC  34 h2
M  ZZC  35 h3
M  ZZC  36 h4
M  ZZC  37 h5
M  ZZC  38 h6
M  ZZC  39 h7
M  ZZC  40 h8
M  ZZC  41 h9
M  ZZC  42 h10
M  ZZC  43 h11
M  ZZC  44 h12
M  ZZC  45 h13
M  ZZC  46 h14
M  ZZC  47 h15
M  ZZC  48 h16
M  ZZC  49 h17
M  ZZC  50 h18
M  ZZC  51 h19
M  ZZC  52 h20
M  ZZM   1 37
M  ZZI   1 125
M  ZZM   2 37
M  ZZI   2 125
M  ZZM   3 37
M  ZZI   3 125
M  ZZM   4 37
M  ZZI   4 125
M  ZZM   5 37
M  ZZI   5 125
M  ZZM   6 37
M  ZZI   6 124
M  ZZM   7 2
M  ZZI   7 120
M  ZZM   8 2
M  ZZI   8 120
M  ZZM   9 2
M  ZZI   9 120
M  ZZM  10 3
M  ZZI  10 121
M  ZZM  11 2
M  ZZI  11 120
M  ZZM  12 3
M  ZZI  12 121
M  ZZM  13 3
M  ZZI  13 121
M  ZZM  14 3
M  ZZI  14 121
M  ZZM  15 2
M  ZZI  15 120
M  ZZM  16 2
M  ZZI  16 120
M  ZZM  17 3
M  ZZI  17 121
M  ZZM  18 3
M  ZZI  18 121
M  ZZM  19 1
M  ZZI  19 112
M  ZZM  20 1
M  ZZI  20 112
M  ZZM  21 1
M  ZZI  21 113
M  ZZM  22 9
M  ZZI  22 220
M  ZZM  23 10
M  ZZI  23 191
M  ZZM  24 10
M  ZZI  24 191
M  ZZM  25 10
M  ZZI  25 192
M  ZZM  26 10
M  ZZI  26 211
M  ZZM  27 10
M  ZZI  27 211
M  ZZM  28 7
M  ZZI  28 81
M  ZZM  29 7
M  ZZI  29 81
M  ZZM  30 7
M  ZZI  30 81
M  ZZM  31 7
M  ZZI  31 81
M  ZZM  32 7
M  ZZI  32 81
M  ZZM  33 5
M  ZZI  33 1
M  ZZM  34 5
M  ZZI  34 1
M  ZZM  35 5
M  ZZI  35 1
M  ZZM  36 5
M  ZZI  36 1
M  ZZM  37 5
M  ZZI  37 1
M  ZZM  38 5
M  ZZI  38 1
M  ZZM  39 5
M  ZZI  39 1
M  ZZM  40 5
M  ZZI  40 1
M  ZZM  41 5
M  ZZI  41 1
M  ZZM  42 5
M  ZZI  42 1
M  ZZM  43 5
M  ZZI  43 1
M  ZZM  44 5
M  ZZI  44 1
M  ZZM  45 5
M  ZZI  45 1
M  ZZM  46 5
M  ZZI  46 1
M  ZZM  47 5
M  ZZI  47 1
M  ZZM  48 5
M  ZZI  48 1
M  ZZM  49 28
M  ZZI  49 11
M  ZZM  50 28
M  ZZI  50 11
M  ZZM  51 28
M  ZZI  51 11
M  ZZM  52 28
M  ZZI  52 11
M  END
> <IX>
22

> <NAME>
44

> <Score>
-35.054274

> <Natom>
52

> <Nflex>
6

> <Hbond>
-6.575014

> <Hphob>
-5.636749

> <VwInt>
-38.759069

> <Dsolv>
17.855707

> <SolEl>
2.682078

> <Eintl>
8.923751

> <RecConf>
ND

> <projPath>
icm/

> <NAME_>
44

$$$$
56
  MOLSOFT 08042117253D

 56 59  0  0  1  0  0  0  0  0999 V2000
  -21.3710   12.6191  -29.9089 C   0  0  0  0  0  0  0  0  0  0  0  0
  -22.4879   12.6148  -29.0919 C   0  0  0  0  0  0  0  0  0  0  0  0
  -20.3843   13.5775  -29.7595 C   0  0  0  0  0  0  0  0  0  0  0  0
  -22.6309   13.5579  -28.0903 C   0  0  0  0  0  0  0  0  0  0  0  0
  -20.5781   14.5553  -28.8089 C   0  0  0  0  0  0  0  0  0  0  0  0
  -21.6639   14.5361  -27.9735 C   0  0  0  0  0  0  0  0  0  0  0  0
  -22.1305   15.7870  -21.2840 C   0  0  0  0  0  0  0  0  0  0  0  0
  -19.2744   22.5668  -25.4535 C   0  0  0  0  0  0  0  0  0  0  0  0
  -18.2317   22.0126  -26.0913 C   0  0  0  0  0  0  0  0  0  0  0  0
  -21.1667   16.0454  -22.1775 C   0  0  0  0  0  0  0  0  0  0  0  0
  -22.4216   16.7818  -20.2319 C   0  0  0  0  0  0  0  0  0  0  0  0
  -16.9039   22.6406  -25.8613 C   0  0  0  0  0  0  0  0  0  0  0  0
  -18.0859   24.1427  -24.3804 C   0  0  0  0  0  0  0  0  0  0  0  0
  -20.6276   18.1570  -21.1269 C   0  0  0  0  0  0  0  0  0  0  0  0
  -18.3887   20.8840  -26.9843 C   0  0  0  0  0  0  0  0  0  0  0  0
  -19.1362   19.8195  -26.6494 C   0  0  0  0  0  0  0  0  0  0  0  0
  -19.4315   18.7412  -27.6233 C   0  0  0  0  0  0  0  0  0  0  0  0
  -21.6816   15.5395  -24.5313 C   0  0  0  0  0  0  0  0  0  0  0  0
  -19.7133   15.7319  -28.5369 C   0  0  0  0  0  0  0  0  0  0  0  0
  -21.6318   15.6834  -27.0209 C   0  0  2  0  0  0  0  0  0  0  0  0
  -20.7205   16.6380  -27.8227 C   0  0  1  0  0  0  0  0  0  0  0  0
  -17.9531   25.3108  -23.4385 C   0  0  0  0  0  0  0  0  0  0  0  0
  -20.8621   15.1152  -23.3223 C   0  0  0  0  0  0  0  0  0  0  0  0
  -19.2503   23.6238  -24.5904 N   0  0  0  0  0  0  0  0  0  0  0  0
  -20.4235   17.1956  -22.0776 N   0  0  0  0  0  0  0  0  0  0  0  0
  -16.9351   23.6934  -24.9865 N   0  0  0  0  0  0  0  0  0  0  0  0
  -21.6357   17.9017  -20.2459 N   0  0  0  0  0  0  0  0  0  0  0  0
  -20.1159   17.7010  -27.0332 N   0  0  0  0  0  0  0  0  0  0  0  0
  -21.0542   15.2875  -25.7359 N   0  0  0  0  0  0  0  0  0  0  0  0
  -23.3107   16.5919  -19.4180 O   0  0  0  0  0  0  0  0  0  0  0  0
  -15.8826   22.2210  -26.3878 O   0  0  0  0  0  0  0  0  0  0  0  0
  -19.9597   19.1748  -21.0716 O   0  0  0  0  0  0  0  0  0  0  0  0
  -19.1348   18.8067  -28.8070 O   0  0  0  0  0  0  0  0  0  0  0  0
  -22.7901   16.0488  -24.4367 O   0  0  0  0  0  0  0  0  0  0  0  0
  -21.2820   11.8642  -30.6741 H   0  0  0  0  0  0  0  0  0  0  0  0
  -23.2465   11.8564  -29.2391 H   0  0  0  0  0  0  0  0  0  0  0  0
  -19.4993   13.5841  -30.3836 H   0  0  0  0  0  0  0  0  0  0  0  0
  -23.4885   13.5444  -27.4326 H   0  0  0  0  0  0  0  0  0  0  0  0
  -22.7428   14.8937  -21.3121 H   0  0  0  0  0  0  0  0  0  0  0  0
  -20.2685   22.1597  -25.6016 H   0  0  0  0  0  0  0  0  0  0  0  0
  -17.9014   20.9496  -27.9534 H   0  0  0  0  0  0  0  0  0  0  0  0
  -19.6081   19.7469  -25.6755 H   0  0  0  0  0  0  0  0  0  0  0  0
  -18.8883   15.4383  -27.8865 H   0  0  0  0  0  0  0  0  0  0  0  0
  -19.3203   16.1824  -29.4548 H   0  0  0  0  0  0  0  0  0  0  0  0
  -22.6263   16.1218  -26.8779 H   0  0  0  0  0  0  0  0  0  0  0  0
  -21.3274   17.1342  -28.5935 H   0  0  0  0  0  0  0  0  0  0  0  0
  -18.4279   25.0626  -22.4851 H   0  0  0  0  0  0  0  0  0  0  0  0
  -18.4737   26.1739  -23.8640 H   0  0  0  0  0  0  0  0  0  0  0  0
  -16.9082   25.5730  -23.2577 H   0  0  0  0  0  0  0  0  0  0  0  0
  -21.1227   14.0810  -23.0759 H   0  0  0  0  0  0  0  0  0  0  0  0
  -19.7912   15.1267  -23.5565 H   0  0  0  0  0  0  0  0  0  0  0  0
  -19.6619   17.3703  -22.7252 H   0  0  0  0  0  0  0  0  0  0  0  0
  -16.0513   24.1308  -24.7652 H   0  0  0  0  0  0  0  0  0  0  0  0
  -21.8112   18.5992  -19.5375 H   0  0  0  0  0  0  0  0  0  0  0  0
  -20.3126   17.7229  -26.0386 H   0  0  0  0  0  0  0  0  0  0  0  0
  -20.1777   14.7752  -25.7455 H   0  0  0  0  0  0  0  0  0  0  0  0
  1 35  1  0  0  0  0
  1  2  1  0  0  0  0
  1  3  2  0  0  0  0
  2 36  1  0  0  0  0
  2  4  2  0  0  0  0
  3  5  1  0  0  0  0
  3 37  1  0  0  0  0
  4 38  1  0  0  0  0
  4  6  1  0  0  0  0
  5 19  1  0  0  0  0
  5  6  2  0  0  0  0
 20  6  1  0  0  0  0
  7 10  2  0  0  0  0
  7 39  1  0  0  0  0
  7 11  1  0  0  0  0
  8 24  1  0  0  0  0
  8 40  1  0  0  0  0
  8  9  2  0  0  0  0
  9 15  1  0  0  0  0
  9 12  1  0  0  0  0
 10 23  1  0  0  0  0
 10 25  1  0  0  0  0
 11 30  2  0  0  0  0
 11 27  1  0  0  0  0
 12 31  2  0  0  0  0
 12 26  1  0  0  0  0
 13 26  1  0  0  0  0
 13 22  1  0  0  0  0
 13 24  2  0  0  0  0
 14 27  1  0  0  0  0
 14 32  2  0  0  0  0
 14 25  1  0  0  0  0
 15 16  2  0  0  0  0
 15 41  1  0  0  0  0
 16 17  1  0  0  0  0
 16 42  1  0  0  0  0
 17 28  1  0  0  0  0
 17 33  2  0  0  0  0
 18 29  1  0  0  0  0
 18 34  2  0  0  0  0
 18 23  1  0  0  0  0
 21 19  1  0  0  0  0
 19 44  1  0  0  0  0
 19 43  1  0  0  0  0
 20 45  1  0  0  0  0
 20 29  1  0  0  0  0
 20 21  1  0  0  0  0
 21 46  1  0  0  0  0
 21 28  1  0  0  0  0
 22 47  1  0  0  0  0
 22 48  1  0  0  0  0
 22 49  1  0  0  0  0
 23 50  1  0  0  0  0
 23 51  1  0  0  0  0
 25 52  1  0  0  0  0
 26 53  1  0  0  0  0
 27 54  1  0  0  0  0
 28 55  1  0  0  0  0
 29 56  1  0  0  0  0
M  ZZC   1 c1
M  ZZC   2 c2
M  ZZC   3 c3
M  ZZC   4 c4
M  ZZC   5 c5
M  ZZC   6 c6
M  ZZC   7 c7
M  ZZC   8 c8
M  ZZC   9 c9
M  ZZC  10 c10
M  ZZC  11 c11
M  ZZC  12 c12
M  ZZC  13 c13
M  ZZC  14 c14
M  ZZC  15 c15
M  ZZC  16 c16
M  ZZC  17 c17
M  ZZC  18 c18
M  ZZC  19 c19
M  ZZC  20 c20
M  ZZC  21 c21
M  ZZC  22 c22
M  ZZC  23 c23
M  ZZC  24 n1
M  ZZC  25 n2
M  ZZC  26 n3
M  ZZC  27 n4
M  ZZC  28 n5
M  ZZC  29 n6
M  ZZC  30 o1
M  ZZC  31 o2
M  ZZC  32 o3
M  ZZC  33 o4
M  ZZC  34 o5
M  ZZC  35 h1
M  ZZC  36 h2
M  ZZC  37 h3
M  ZZC  38 h4
M  ZZC  39 h5
M  ZZC  40 h6
M  ZZC  41 h7
M  ZZC  42 h8
M  ZZC  43 h9
M  ZZC  44 h10
M  ZZC  45 h11
M  ZZC  46 h12
M  ZZC  47 h13
M  ZZC  48 h14
M  ZZC  49 h15
M  ZZC  50 h16
M  ZZC  51 h17
M  ZZC  52 h18
M  ZZC  53 h19
M  ZZC  54 h20
M  ZZC  55 h21
M  ZZC  56 h22
M  ZZM   1 37
M  ZZI   1 125
M  ZZM   2 37
M  ZZI   2 125
M  ZZM   3 37
M  ZZI   3 125
M  ZZM   4 37
M  ZZI   4 125
M  ZZM   5 37
M  ZZI   5 124
M  ZZM   6 37
M  ZZI   6 124
M  ZZM   7 2
M  ZZI   7 120
M  ZZM   8 2
M  ZZI   8 120
M  ZZM   9 2
M  ZZI   9 120
M  ZZM  10 2
M  ZZI  10 120
M  ZZM  11 3
M  ZZI  11 121
M  ZZM  12 3
M  ZZI  12 121
M  ZZM  13 3
M  ZZI  13 121
M  ZZM  14 3
M  ZZI  14 121
M  ZZM  15 2
M  ZZI  15 120
M  ZZM  16 2
M  ZZI  16 120
M  ZZM  17 3
M  ZZI  17 121
M  ZZM  18 3
M  ZZI  18 121
M  ZZM  19 1
M  ZZI  19 112
M  ZZM  20 1
M  ZZI  20 113
M  ZZM  21 1
M  ZZI  21 113
M  ZZM  22 1
M  ZZI  22 111
M  ZZM  23 1
M  ZZI  23 112
M  ZZM  24 9
M  ZZI  24 220
M  ZZM  25 10
M  ZZI  25 191
M  ZZM  26 10
M  ZZI  26 191
M  ZZM  27 10
M  ZZI  27 191
M  ZZM  28 10
M  ZZI  28 211
M  ZZM  29 10
M  ZZI  29 211
M  ZZM  30 7
M  ZZI  30 81
M  ZZM  31 7
M  ZZI  31 81
M  ZZM  32 7
M  ZZI  32 81
M  ZZM  33 7
M  ZZI  33 81
M  ZZM  34 7
M  ZZI  34 81
M  ZZM  35 5
M  ZZI  35 1
M  ZZM  36 5
M  ZZI  36 1
M  ZZM  37 5
M  ZZI  37 1
M  ZZM  38 5
M  ZZI  38 1
M  ZZM  39 5
M  ZZI  39 1
M  ZZM  40 5
M  ZZI  40 1
M  ZZM  41 5
M  ZZI  41 1
M  ZZM  42 5
M  ZZI  42 1
M  ZZM  43 5
M  ZZI  43 1
M  ZZM  44 5
M  ZZI  44 1
M  ZZM  45 5
M  ZZI  45 1
M  ZZM  46 5
M  ZZI  46 1
M  ZZM  47 5
M  ZZI  47 1
M  ZZM  48 5
M  ZZI  48 1
M  ZZM  49 5
M  ZZI  49 1
M  ZZM  50 5
M  ZZI  50 1
M  ZZM  51 5
M  ZZI  51 1
M  ZZM  52 28
M  ZZI  52 11
M  ZZM  53 28
M  ZZI  53 11
M  ZZM  54 28
M  ZZI  54 11
M  ZZM  55 28
M  ZZI  55 11
M  ZZM  56 28
M  ZZI  56 11
M  END
> <IX>
23

> <NAME>
56

> <Score>
-31.304098

> <Natom>
56

> <Nflex>
4

> <Hbond>
-5.207708

> <Hphob>
-6.39917

> <VwInt>
-40.099987

> <Dsolv>
18.759171

> <SolEl>
7.987588

> <Eintl>
7.529413

> <RecConf>
ND

> <projPath>
icm/

> <NAME_>
56

$$$$
52
  MOLSOFT 08042116483D

 53 55  0  0  1  0  0  0  0  0999 V2000
  -21.2587   13.1155  -29.4818 C   0  0  0  0  0  0  0  0  0  0  0  0
  -22.2558   13.4307  -28.5804 C   0  0  0  0  0  0  0  0  0  0  0  0
  -20.0333   13.7443  -29.3848 C   0  0  0  0  0  0  0  0  0  0  0  0
  -22.0267   14.3600  -27.5800 C   0  0  0  0  0  0  0  0  0  0  0  0
  -19.8043   14.6746  -28.3886 C   0  0  0  0  0  0  0  0  0  0  0  0
  -20.7871   14.9940  -27.4516 C   0  0  0  0  0  0  0  0  0  0  0  0
  -17.5924   22.8595  -25.5749 C   0  0  0  0  0  0  0  0  0  0  0  0
  -18.8983   22.7890  -25.2905 C   0  0  0  0  0  0  0  0  0  0  0  0
  -20.0869   20.3045  -20.4369 C   0  0  0  0  0  0  0  0  0  0  0  0
  -21.1335   19.5290  -20.1151 C   0  0  0  0  0  0  0  0  0  0  0  0
  -16.9400   21.8615  -26.4449 C   0  0  0  0  0  0  0  0  0  0  0  0
  -19.7633   21.7127  -25.8238 C   0  0  0  0  0  0  0  0  0  0  0  0
  -21.7061   19.7295  -18.7482 C   0  0  0  0  0  0  0  0  0  0  0  0
  -19.9902   21.4072  -18.3014 C   0  0  0  0  0  0  0  0  0  0  0  0
  -21.7623   18.6078  -21.0455 C   0  0  0  0  0  0  0  0  0  0  0  0
  -21.0932   17.9526  -22.0081 C   0  0  0  0  0  0  0  0  0  0  0  0
  -21.7986   17.0988  -23.0002 C   0  0  0  0  0  0  0  0  0  0  0  0
  -19.6528   18.3851  -26.5009 C   0  0  0  0  0  0  0  0  0  0  0  0
  -19.8359   19.6760  -27.2872 C   0  0  0  0  0  0  0  0  0  0  0  0
  -21.3874   15.8830  -25.1222 C   0  0  0  0  0  0  0  0  0  0  0  0
  -20.4771   16.0114  -26.3643 C   0  0  2  0  0  0  0  0  0  0  0  0
  -19.5336   21.2019  -19.5688 N   0  0  0  0  0  0  0  0  0  0  0  0
  -21.0681   20.6487  -17.9532 N   0  0  0  0  0  0  0  0  0  0  0  0
  -17.7567   20.8851  -26.9632 N   0  0  0  0  0  0  0  0  0  0  0  0
  -19.1344   20.8021  -26.6622 N   0  0  0  0  0  0  0  0  0  0  0  0
  -20.9369   16.6793  -23.9924 N   0  0  0  0  0  0  0  0  0  0  0  0
  -20.4985   17.3661  -26.9214 N   0  0  0  0  0  0  0  0  0  0  0  0
  -15.7417   21.9238  -26.6628 O   0  0  0  0  0  0  0  0  0  0  0  0
  -20.9468   21.6798  -25.5186 O   0  0  0  0  0  0  0  0  0  0  0  0
  -22.6810   19.1043  -18.3598 O   0  0  0  0  0  0  0  0  0  0  0  0
  -19.4776   22.2100  -17.5417 O   0  0  0  0  0  0  0  0  0  0  0  0
  -22.9933   16.8356  -22.9410 O   0  0  0  0  0  0  0  0  0  0  0  0
  -18.8091   18.2614  -25.6229 O   0  0  0  0  0  0  0  0  0  0  0  0
  -21.4394   12.3838  -30.2628 H   0  0  0  0  0  0  0  0  0  0  0  0
  -23.2233   12.9452  -28.6566 H   0  0  0  0  0  0  0  0  0  0  0  0
  -19.2453   13.5149  -30.0930 H   0  0  0  0  0  0  0  0  0  0  0  0
  -22.8434   14.5777  -26.9012 H   0  0  0  0  0  0  0  0  0  0  0  0
  -18.8352   15.1596  -28.3555 H   0  0  0  0  0  0  0  0  0  0  0  0
  -16.9641   23.6475  -25.1751 H   0  0  0  0  0  0  0  0  0  0  0  0
  -19.3728   23.5244  -24.6514 H   0  0  0  0  0  0  0  0  0  0  0  0
  -19.6157   20.2762  -21.4150 H   0  0  0  0  0  0  0  0  0  0  0  0
  -22.8373   18.4826  -20.9490 H   0  0  0  0  0  0  0  0  0  0  0  0
  -20.0196   18.0513  -22.1164 H   0  0  0  0  0  0  0  0  0  0  0  0
  -19.4618   19.5351  -28.3072 H   0  0  0  0  0  0  0  0  0  0  0  0
  -20.9052   19.9069  -27.3407 H   0  0  0  0  0  0  0  0  0  0  0  0
  -22.4166   16.1813  -25.3526 H   0  0  0  0  0  0  0  0  0  0  0  0
  -21.4191   14.8458  -24.7704 H   0  0  0  0  0  0  0  0  0  0  0  0
  -19.4553   15.8171  -26.0240 H   0  0  0  0  0  0  0  0  0  0  0  0
  -18.7472   21.7628  -19.8740 H   0  0  0  0  0  0  0  0  0  0  0  0
  -21.4327   20.7825  -17.0210 H   0  0  0  0  0  0  0  0  0  0  0  0
  -17.3473   20.1779  -27.5670 H   0  0  0  0  0  0  0  0  0  0  0  0
  -19.9509   16.9252  -23.9361 H   0  0  0  0  0  0  0  0  0  0  0  0
  -21.1830   17.5573  -27.6463 H   0  0  0  0  0  0  0  0  0  0  0  0
  1 34  1  0  0  0  0
  1  2  1  0  0  0  0
  1  3  2  0  0  0  0
  2 35  1  0  0  0  0
  2  4  2  0  0  0  0
  3  5  1  0  0  0  0
  3 36  1  0  0  0  0
  4 37  1  0  0  0  0
  4  6  1  0  0  0  0
  5  6  2  0  0  0  0
  5 38  1  0  0  0  0
 21  6  1  0  0  0  0
  7  8  2  0  0  0  0
  7 39  1  0  0  0  0
  7 11  1  0  0  0  0
  8 12  1  0  0  0  0
  8 40  1  0  0  0  0
  9 22  1  0  0  0  0
  9 41  1  0  0  0  0
  9 10  2  0  0  0  0
 10 15  1  0  0  0  0
 10 13  1  0  0  0  0
 11 28  2  0  0  0  0
 11 24  1  0  0  0  0
 12 25  1  0  0  0  0
 12 29  2  0  0  0  0
 13 30  2  0  0  0  0
 13 23  1  0  0  0  0
 14 23  1  0  0  0  0
 14 31  2  0  0  0  0
 14 22  1  0  0  0  0
 15 16  2  0  0  0  0
 15 42  1  0  0  0  0
 16 17  1  0  0  0  0
 16 43  1  0  0  0  0
 17 26  1  0  0  0  0
 17 32  2  0  0  0  0
 18 27  1  0  0  0  0
 18 33  2  0  0  0  0
 18 19  1  0  0  0  0
 19 44  1  0  0  0  0
 19 45  1  0  0  0  0
 19 25  1  0  0  0  0
 21 20  1  0  0  0  0
 20 46  1  0  0  0  0
 20 47  1  0  0  0  0
 20 26  1  0  0  0  0
 21 48  1  0  0  0  0
 21 27  1  0  0  0  0
 22 49  1  0  0  0  0
 23 50  1  0  0  0  0
 24 51  1  0  0  0  0
 24 25  1  0  0  0  0
 26 52  1  0  0  0  0
 27 53  1  0  0  0  0
M  ZZC   1 c1
M  ZZC   2 c2
M  ZZC   3 c3
M  ZZC   4 c4
M  ZZC   5 c5
M  ZZC   6 c6
M  ZZC   7 c7
M  ZZC   8 c8
M  ZZC   9 c9
M  ZZC  10 c10
M  ZZC  11 c11
M  ZZC  12 c12
M  ZZC  13 c13
M  ZZC  14 c14
M  ZZC  15 c15
M  ZZC  16 c16
M  ZZC  17 c17
M  ZZC  18 c18
M  ZZC  19 c19
M  ZZC  20 c20
M  ZZC  21 c21
M  ZZC  22 n1
M  ZZC  23 n2
M  ZZC  24 n3
M  ZZC  25 n4
M  ZZC  26 n5
M  ZZC  27 n6
M  ZZC  28 o1
M  ZZC  29 o2
M  ZZC  30 o3
M  ZZC  31 o4
M  ZZC  32 o5
M  ZZC  33 o6
M  ZZC  34 h1
M  ZZC  35 h2
M  ZZC  36 h3
M  ZZC  37 h4
M  ZZC  38 h5
M  ZZC  39 h6
M  ZZC  40 h7
M  ZZC  41 h8
M  ZZC  42 h9
M  ZZC  43 h10
M  ZZC  44 h11
M  ZZC  45 h12
M  ZZC  46 h13
M  ZZC  47 h14
M  ZZC  48 h15
M  ZZC  49 h16
M  ZZC  50 h17
M  ZZC  51 h18
M  ZZC  52 h19
M  ZZC  53 h20
M  ZZM   1 37
M  ZZI   1 125
M  ZZM   2 37
M  ZZI   2 125
M  ZZM   3 37
M  ZZI   3 125
M  ZZM   4 37
M  ZZI   4 125
M  ZZM   5 37
M  ZZI   5 125
M  ZZM   6 37
M  ZZI   6 124
M  ZZM   7 2
M  ZZI   7 120
M  ZZM   8 2
M  ZZI   8 120
M  ZZM   9 2
M  ZZI   9 120
M  ZZM  10 2
M  ZZI  10 120
M  ZZM  11 3
M  ZZI  11 121
M  ZZM  12 3
M  ZZI  12 121
M  ZZM  13 3
M  ZZI  13 121
M  ZZM  14 3
M  ZZI  14 121
M  ZZM  15 2
M  ZZI  15 120
M  ZZM  16 2
M  ZZI  16 120
M  ZZM  17 3
M  ZZI  17 121
M  ZZM  18 3
M  ZZI  18 121
M  ZZM  19 1
M  ZZI  19 112
M  ZZM  20 1
M  ZZI  20 112
M  ZZM  21 1
M  ZZI  21 113
M  ZZM  22 10
M  ZZI  22 191
M  ZZM  23 10
M  ZZI  23 191
M  ZZM  24 10
M  ZZI  24 191
M  ZZM  25 10
M  ZZI  25 192
M  ZZM  26 10
M  ZZI  26 211
M  ZZM  27 10
M  ZZI  27 211
M  ZZM  28 7
M  ZZI  28 81
M  ZZM  29 7
M  ZZI  29 81
M  ZZM  30 7
M  ZZI  30 81
M  ZZM  31 7
M  ZZI  31 81
M  ZZM  32 7
M  ZZI  32 81
M  ZZM  33 7
M  ZZI  33 81
M  ZZM  34 5
M  ZZI  34 1
M  ZZM  35 5
M  ZZI  35 1
M  ZZM  36 5
M  ZZI  36 1
M  ZZM  37 5
M  ZZI  37 1
M  ZZM  38 5
M  ZZI  38 1
M  ZZM  39 5
M  ZZI  39 1
M  ZZM  40 5
M  ZZI  40 1
M  ZZM  41 5
M  ZZI  41 1
M  ZZM  42 5
M  ZZI  42 1
M  ZZM  43 5
M  ZZI  43 1
M  ZZM  44 5
M  ZZI  44 1
M  ZZM  45 5
M  ZZI  45 1
M  ZZM  46 5
M  ZZI  46 1
M  ZZM  47 5
M  ZZI  47 1
M  ZZM  48 5
M  ZZI  48 1
M  ZZM  49 28
M  ZZI  49 11
M  ZZM  50 28
M  ZZI  50 11
M  ZZM  51 28
M  ZZI  51 11
M  ZZM  52 28
M  ZZI  52 11
M  ZZM  53 28
M  ZZI  53 11
M  END
> <IX>
24

> <NAME>
52

> <Score>
-37.338265

> <Natom>
53

> <Nflex>
6

> <Hbond>
-6.295484

> <Hphob>
-5.387244

> <VwInt>
-38.417128

> <Dsolv>
15.569672

> <SolEl>
4.60557

> <Eintl>
3.831604

> <RecConf>
ND

> <projPath>
icm/

> <NAME_>
52

$$$$
43
  MOLSOFT 08042116503D

 56 59  0  0  1  0  0  0  0  0999 V2000
  -22.4039   13.0312  -29.8564 C   0  0  0  0  0  0  0  0  0  0  0  0
  -23.0450   14.1808  -30.3017 C   0  0  0  0  0  0  0  0  0  0  0  0
  -21.1552   13.1088  -29.2655 C   0  0  0  0  0  0  0  0  0  0  0  0
  -22.4589   15.4278  -30.1524 C   0  0  0  0  0  0  0  0  0  0  0  0
  -20.5845   14.3565  -29.1060 C   0  0  0  0  0  0  0  0  0  0  0  0
  -21.2233   15.4957  -29.5311 C   0  0  0  0  0  0  0  0  0  0  0  0
  -18.2682   22.0939  -26.0784 C   0  0  0  0  0  0  0  0  0  0  0  0
  -19.3436   21.4758  -25.5765 C   0  0  0  0  0  0  0  0  0  0  0  0
  -18.0638   22.1565  -27.4913 C   0  0  0  0  0  0  0  0  0  0  0  0
  -21.9614   15.7846  -22.1390 C   0  0  0  0  0  0  0  0  0  0  0  0
  -18.9643   21.6198  -28.3165 C   0  0  0  0  0  0  0  0  0  0  0  0
  -20.9709   15.1334  -22.7721 C   0  0  0  0  0  0  0  0  0  0  0  0
  -20.3454   20.8482  -26.4835 C   0  0  0  0  0  0  0  0  0  0  0  0
  -20.5232   13.8639  -22.1319 C   0  0  0  0  0  0  0  0  0  0  0  0
  -22.1722   14.3101  -20.4418 C   0  0  0  0  0  0  0  0  0  0  0  0
  -20.4176   15.5323  -24.0562 C   0  0  0  0  0  0  0  0  0  0  0  0
  -20.2937   16.7994  -24.4977 C   0  0  0  0  0  0  0  0  0  0  0  0
  -19.6765   17.0928  -25.8183 C   0  0  0  0  0  0  0  0  0  0  0  0
  -20.4389   19.1270  -29.4145 C   0  0  0  0  0  0  0  0  0  0  0  0
  -19.2554   14.6775  -28.5050 C   0  0  0  0  0  0  0  0  0  0  0  0
  -20.3479   16.6827  -29.2955 C   0  0  2  0  0  0  0  0  0  0  0  0
  -19.4640   16.1567  -28.1527 C   0  0  1  0  0  0  0  0  0  0  0  0
  -22.7974   13.7829  -19.1774 C   0  0  0  0  0  0  0  0  0  0  0  0
  -21.0364   20.3874  -28.8102 C   0  0  0  0  0  0  0  0  0  0  0  0
  -22.5809   15.4175  -20.9726 N   0  0  0  0  0  0  0  0  0  0  0  0
  -21.1784   13.5373  -20.9832 N   0  0  0  0  0  0  0  0  0  0  0  0
  -20.0952   20.9800  -27.8484 N   0  0  0  0  0  0  0  0  0  0  0  0
  -20.0935   16.2417  -26.8250 N   0  0  0  0  0  0  0  0  0  0  0  0
  -21.0022   17.9417  -28.9789 N   0  0  0  0  0  0  0  0  0  0  0  0
  -21.3129   20.2768  -25.9999 O   0  0  0  0  0  0  0  0  0  0  0  0
  -19.6483   13.1524  -22.5990 O   0  0  0  0  0  0  0  0  0  0  0  0
  -18.8880   18.0189  -25.9404 O   0  0  0  0  0  0  0  0  0  0  0  0
  -19.4850   19.1685  -30.1789 O   0  0  0  0  0  0  0  0  0  0  0  0
  -22.8761   12.0628  -29.9775 H   0  0  0  0  0  0  0  0  0  0  0  0
  -24.0090   14.1037  -30.7869 H   0  0  0  0  0  0  0  0  0  0  0  0
  -20.6421   12.2132  -28.9363 H   0  0  0  0  0  0  0  0  0  0  0  0
  -22.9536   16.3201  -30.5233 H   0  0  0  0  0  0  0  0  0  0  0  0
  -17.5338   22.5603  -25.4301 H   0  0  0  0  0  0  0  0  0  0  0  0
  -19.5253   21.4128  -24.5108 H   0  0  0  0  0  0  0  0  0  0  0  0
  -17.1788   22.6520  -27.8713 H   0  0  0  0  0  0  0  0  0  0  0  0
  -22.3658   16.6945  -22.5701 H   0  0  0  0  0  0  0  0  0  0  0  0
  -18.8264   21.6610  -29.3922 H   0  0  0  0  0  0  0  0  0  0  0  0
  -20.0636   14.7094  -24.6719 H   0  0  0  0  0  0  0  0  0  0  0  0
  -20.5463   17.6628  -23.8933 H   0  0  0  0  0  0  0  0  0  0  0  0
  -19.0409   14.0548  -27.6291 H   0  0  0  0  0  0  0  0  0  0  0  0
  -18.4668   14.5441  -29.2546 H   0  0  0  0  0  0  0  0  0  0  0  0
  -19.7353   16.8167  -30.1935 H   0  0  0  0  0  0  0  0  0  0  0  0
  -18.5279   16.7194  -28.1188 H   0  0  0  0  0  0  0  0  0  0  0  0
  -22.2123   12.9605  -18.7545 H   0  0  0  0  0  0  0  0  0  0  0  0
  -23.8048   13.4213  -19.4043 H   0  0  0  0  0  0  0  0  0  0  0  0
  -22.8691   14.5877  -18.4401 H   0  0  0  0  0  0  0  0  0  0  0  0
  -21.2382   21.1072  -29.6115 H   0  0  0  0  0  0  0  0  0  0  0  0
  -21.9894   20.1579  -28.3224 H   0  0  0  0  0  0  0  0  0  0  0  0
  -20.9019   12.6691  -20.5408 H   0  0  0  0  0  0  0  0  0  0  0  0
  -20.8547   15.6003  -26.6277 H   0  0  0  0  0  0  0  0  0  0  0  0
  -21.7686   17.9415  -28.3143 H   0  0  0  0  0  0  0  0  0  0  0  0
  1 34  1  0  0  0  0
  1  2  1  0  0  0  0
  1  3  2  0  0  0  0
  2 35  1  0  0  0  0
  2  4  2  0  0  0  0
  3  5  1  0  0  0  0
  3 36  1  0  0  0  0
  4 37  1  0  0  0  0
  4  6  1  0  0  0  0
  5 20  1  0  0  0  0
  5  6  2  0  0  0  0
 21  6  1  0  0  0  0
  7  9  1  0  0  0  0
  7 38  1  0  0  0  0
  7  8  2  0  0  0  0
  8 39  1  0  0  0  0
  8 13  1  0  0  0  0
  9 11  2  0  0  0  0
  9 40  1  0  0  0  0
 10 12  2  0  0  0  0
 10 41  1  0  0  0  0
 10 25  1  0  0  0  0
 11 27  1  0  0  0  0
 11 42  1  0  0  0  0
 12 16  1  0  0  0  0
 12 14  1  0  0  0  0
 13 30  2  0  0  0  0
 13 27  1  0  0  0  0
 14 26  1  0  0  0  0
 14 31  2  0  0  0  0
 15 25  2  0  0  0  0
 15 23  1  0  0  0  0
 15 26  1  0  0  0  0
 16 17  2  0  0  0  0
 16 43  1  0  0  0  0
 17 18  1  0  0  0  0
 17 44  1  0  0  0  0
 18 28  1  0  0  0  0
 18 32  2  0  0  0  0
 19 29  1  0  0  0  0
 19 33  2  0  0  0  0
 19 24  1  0  0  0  0
 22 20  1  0  0  0  0
 20 45  1  0  0  0  0
 20 46  1  0  0  0  0
 21 47  1  0  0  0  0
 21 29  1  0  0  0  0
 21 22  1  0  0  0  0
 22 48  1  0  0  0  0
 22 28  1  0  0  0  0
 23 49  1  0  0  0  0
 23 50  1  0  0  0  0
 23 51  1  0  0  0  0
 24 52  1  0  0  0  0
 24 53  1  0  0  0  0
 24 27  1  0  0  0  0
 26 54  1  0  0  0  0
 28 55  1  0  0  0  0
 29 56  1  0  0  0  0
M  ZZC   1 c1
M  ZZC   2 c2
M  ZZC   3 c3
M  ZZC   4 c4
M  ZZC   5 c5
M  ZZC   6 c6
M  ZZC   7 c7
M  ZZC   8 c8
M  ZZC   9 c9
M  ZZC  10 c10
M  ZZC  11 c11
M  ZZC  12 c12
M  ZZC  13 c13
M  ZZC  14 c14
M  ZZC  15 c15
M  ZZC  16 c16
M  ZZC  17 c17
M  ZZC  18 c18
M  ZZC  19 c19
M  ZZC  20 c20
M  ZZC  21 c21
M  ZZC  22 c22
M  ZZC  23 c23
M  ZZC  24 c24
M  ZZC  25 n1
M  ZZC  26 n2
M  ZZC  27 n3
M  ZZC  28 n4
M  ZZC  29 n5
M  ZZC  30 o1
M  ZZC  31 o2
M  ZZC  32 o3
M  ZZC  33 o4
M  ZZC  34 h1
M  ZZC  35 h2
M  ZZC  36 h3
M  ZZC  37 h4
M  ZZC  38 h5
M  ZZC  39 h6
M  ZZC  40 h7
M  ZZC  41 h8
M  ZZC  42 h9
M  ZZC  43 h10
M  ZZC  44 h11
M  ZZC  45 h12
M  ZZC  46 h13
M  ZZC  47 h14
M  ZZC  48 h15
M  ZZC  49 h16
M  ZZC  50 h17
M  ZZC  51 h18
M  ZZC  52 h19
M  ZZC  53 h20
M  ZZC  54 h21
M  ZZC  55 h22
M  ZZC  56 h23
M  ZZM   1 37
M  ZZI   1 125
M  ZZM   2 37
M  ZZI   2 125
M  ZZM   3 37
M  ZZI   3 125
M  ZZM   4 37
M  ZZI   4 125
M  ZZM   5 37
M  ZZI   5 124
M  ZZM   6 37
M  ZZI   6 124
M  ZZM   7 2
M  ZZI   7 120
M  ZZM   8 2
M  ZZI   8 120
M  ZZM   9 2
M  ZZI   9 120
M  ZZM  10 2
M  ZZI  10 120
M  ZZM  11 2
M  ZZI  11 120
M  ZZM  12 2
M  ZZI  12 120
M  ZZM  13 3
M  ZZI  13 121
M  ZZM  14 3
M  ZZI  14 121
M  ZZM  15 3
M  ZZI  15 121
M  ZZM  16 2
M  ZZI  16 120
M  ZZM  17 2
M  ZZI  17 120
M  ZZM  18 3
M  ZZI  18 121
M  ZZM  19 3
M  ZZI  19 121
M  ZZM  20 1
M  ZZI  20 112
M  ZZM  21 1
M  ZZI  21 113
M  ZZM  22 1
M  ZZI  22 113
M  ZZM  23 1
M  ZZI  23 111
M  ZZM  24 1
M  ZZI  24 112
M  ZZM  25 9
M  ZZI  25 220
M  ZZM  26 10
M  ZZI  26 191
M  ZZM  27 10
M  ZZI  27 192
M  ZZM  28 10
M  ZZI  28 211
M  ZZM  29 10
M  ZZI  29 211
M  ZZM  30 7
M  ZZI  30 81
M  ZZM  31 7
M  ZZI  31 81
M  ZZM  32 7
M  ZZI  32 81
M  ZZM  33 7
M  ZZI  33 81
M  ZZM  34 5
M  ZZI  34 1
M  ZZM  35 5
M  ZZI  35 1
M  ZZM  36 5
M  ZZI  36 1
M  ZZM  37 5
M  ZZI  37 1
M  ZZM  38 5
M  ZZI  38 1
M  ZZM  39 5
M  ZZI  39 1
M  ZZM  40 5
M  ZZI  40 1
M  ZZM  41 5
M  ZZI  41 1
M  ZZM  42 5
M  ZZI  42 1
M  ZZM  43 5
M  ZZI  43 1
M  ZZM  44 5
M  ZZI  44 1
M  ZZM  45 5
M  ZZI  45 1
M  ZZM  46 5
M  ZZI  46 1
M  ZZM  47 5
M  ZZI  47 1
M  ZZM  48 5
M  ZZI  48 1
M  ZZM  49 5
M  ZZI  49 1
M  ZZM  50 5
M  ZZI  50 1
M  ZZM  51 5
M  ZZI  51 1
M  ZZM  52 5
M  ZZI  52 1
M  ZZM  53 5
M  ZZI  53 1
M  ZZM  54 28
M  ZZI  54 11
M  ZZM  55 28
M  ZZI  55 11
M  ZZM  56 28
M  ZZI  56 11
M  END
> <IX>
25

> <NAME>
43

> <Score>
-28.116863

> <Natom>
56

> <Nflex>
4

> <Hbond>
-5.120532

> <Hphob>
-6.679596

> <VwInt>
-38.715381

> <Dsolv>
20.160894

> <SolEl>
10.019902

> <Eintl>
6.491649

> <RecConf>
ND

> <projPath>
icm/

> <NAME_>
43

$$$$
27
  MOLSOFT 08042116523D

 54 57  0  0  1  0  0  0  0  0999 V2000
  -21.6438   12.9714  -29.9547 C   0  0  0  0  0  0  0  0  0  0  0  0
  -22.7845   13.7459  -29.8918 C   0  0  0  0  0  0  0  0  0  0  0  0
  -20.6961   13.0509  -28.9529 C   0  0  0  0  0  0  0  0  0  0  0  0
  -22.9877   14.5857  -28.8134 C   0  0  0  0  0  0  0  0  0  0  0  0
  -19.9665   13.9507  -26.8356 C   0  0  0  0  0  0  0  0  0  0  0  0
  -20.1762   14.7813  -25.7505 C   0  0  0  0  0  0  0  0  0  0  0  0
  -22.2624   15.4826  -26.6896 C   0  0  0  0  0  0  0  0  0  0  0  0
  -20.8999   13.8806  -27.8587 C   0  0  0  0  0  0  0  0  0  0  0  0
  -22.0557   14.6522  -27.7846 C   0  0  0  0  0  0  0  0  0  0  0  0
  -21.3281   15.5608  -25.6595 C   0  0  0  0  0  0  0  0  0  0  0  0
  -17.1912   23.3773  -25.3630 C   0  0  0  0  0  0  0  0  0  0  0  0
  -18.4607   23.4848  -24.9532 C   0  0  0  0  0  0  0  0  0  0  0  0
  -23.4006   14.8134  -20.2485 C   0  0  0  0  0  0  0  0  0  0  0  0
  -21.0970   13.4009  -20.0630 C   0  0  0  0  0  0  0  0  0  0  0  0
  -22.3935   14.8977  -21.1317 C   0  0  0  0  0  0  0  0  0  0  0  0
  -16.7706   22.3260  -26.3091 C   0  0  0  0  0  0  0  0  0  0  0  0
  -19.5023   22.5314  -25.3908 C   0  0  0  0  0  0  0  0  0  0  0  0
  -23.2508   13.8829  -19.1200 C   0  0  0  0  0  0  0  0  0  0  0  0
  -22.6111   15.8061  -22.3025 C   0  0  0  0  0  0  0  0  0  0  0  0
  -19.6146   19.2961  -25.8500 C   0  0  0  0  0  0  0  0  0  0  0  0
  -19.9383   20.4785  -26.7500 C   0  0  0  0  0  0  0  0  0  0  0  0
  -20.5771   17.6022  -24.3325 C   0  0  0  0  0  0  0  0  0  0  0  0
  -21.5931   16.4577  -24.4689 C   0  0  2  0  0  0  0  0  0  0  0  0
  -21.2083   14.2004  -21.0722 N   0  0  0  0  0  0  0  0  0  0  0  0
  -22.0601   13.2226  -19.1062 N   0  0  0  0  0  0  0  0  0  0  0  0
  -17.7725   21.5416  -26.8175 N   0  0  0  0  0  0  0  0  0  0  0  0
  -19.0963   21.6007  -26.3378 N   0  0  0  0  0  0  0  0  0  0  0  0
  -21.6188   15.6758  -23.2460 N   0  0  0  0  0  0  0  0  0  0  0  0
  -20.7198   18.6425  -25.3411 N   0  0  0  0  0  0  0  0  0  0  0  0
  -15.5970   22.1829  -26.6055 O   0  0  0  0  0  0  0  0  0  0  0  0
  -20.6260   22.5935  -24.9121 O   0  0  0  0  0  0  0  0  0  0  0  0
  -24.1307   13.7292  -18.2891 O   0  0  0  0  0  0  0  0  0  0  0  0
  -23.5842   16.5393  -22.4192 O   0  0  0  0  0  0  0  0  0  0  0  0
  -18.4686   18.9577  -25.5925 O   0  0  0  0  0  0  0  0  0  0  0  0
  -21.4828   12.3083  -30.7947 H   0  0  0  0  0  0  0  0  0  0  0  0
  -23.5176   13.7021  -30.6894 H   0  0  0  0  0  0  0  0  0  0  0  0
  -19.7918   12.4609  -29.0353 H   0  0  0  0  0  0  0  0  0  0  0  0
  -23.8829   15.1953  -28.7846 H   0  0  0  0  0  0  0  0  0  0  0  0
  -19.0657   13.3477  -26.8723 H   0  0  0  0  0  0  0  0  0  0  0  0
  -19.4268   14.8064  -24.9652 H   0  0  0  0  0  0  0  0  0  0  0  0
  -23.1719   16.0750  -26.6344 H   0  0  0  0  0  0  0  0  0  0  0  0
  -16.4229   24.0523  -25.0097 H   0  0  0  0  0  0  0  0  0  0  0  0
  -18.7635   24.2546  -24.2531 H   0  0  0  0  0  0  0  0  0  0  0  0
  -24.3314   15.3640  -20.3243 H   0  0  0  0  0  0  0  0  0  0  0  0
  -20.1899   12.7951  -19.9029 H   0  0  0  0  0  0  0  0  0  0  0  0
  -19.7367   20.2157  -27.7941 H   0  0  0  0  0  0  0  0  0  0  0  0
  -20.9920   20.7599  -26.6524 H   0  0  0  0  0  0  0  0  0  0  0  0
  -20.7185   18.1075  -23.3708 H   0  0  0  0  0  0  0  0  0  0  0  0
  -19.5495   17.2250  -24.3276 H   0  0  0  0  0  0  0  0  0  0  0  0
  -22.5860   16.9054  -24.5889 H   0  0  0  0  0  0  0  0  0  0  0  0
  -21.9080   12.5567  -18.3609 H   0  0  0  0  0  0  0  0  0  0  0  0
  -17.5279   20.8084  -27.4772 H   0  0  0  0  0  0  0  0  0  0  0  0
  -20.8717   15.0147  -23.0505 H   0  0  0  0  0  0  0  0  0  0  0  0
  -21.6500   18.9975  -25.5382 H   0  0  0  0  0  0  0  0  0  0  0  0
  1 35  1  0  0  0  0
  1  2  1  0  0  0  0
  1  3  2  0  0  0  0
  2 36  1  0  0  0  0
  2  4  2  0  0  0  0
  3  8  1  0  0  0  0
  3 37  1  0  0  0  0
  4 38  1  0  0  0  0
  4  9  1  0  0  0  0
  5  6  2  0  0  0  0
  5 39  1  0  0  0  0
  5  8  1  0  0  0  0
  6 10  1  0  0  0  0
  6 40  1  0  0  0  0
  7  9  1  0  0  0  0
  7 41  1  0  0  0  0
  7 10  2  0  0  0  0
  8  9  2  0  0  0  0
 23 10  1  0  0  0  0
 11 12  2  0  0  0  0
 11 42  1  0  0  0  0
 11 16  1  0  0  0  0
 12 17  1  0  0  0  0
 12 43  1  0  0  0  0
 13 15  2  0  0  0  0
 13 44  1  0  0  0  0
 13 18  1  0  0  0  0
 14 25  1  0  0  0  0
 14 45  1  0  0  0  0
 14 24  2  0  0  0  0
 15 19  1  0  0  0  0
 15 24  1  0  0  0  0
 16 30  2  0  0  0  0
 16 26  1  0  0  0  0
 17 27  1  0  0  0  0
 17 31  2  0  0  0  0
 18 32  2  0  0  0  0
 18 25  1  0  0  0  0
 19 28  1  0  0  0  0
 19 33  2  0  0  0  0
 20 29  1  0  0  0  0
 20 34  2  0  0  0  0
 20 21  1  0  0  0  0
 21 46  1  0  0  0  0
 21 47  1  0  0  0  0
 21 27  1  0  0  0  0
 23 22  1  0  0  0  0
 22 48  1  0  0  0  0
 22 49  1  0  0  0  0
 22 29  1  0  0  0  0
 23 50  1  0  0  0  0
 23 28  1  0  0  0  0
 25 51  1  0  0  0  0
 26 52  1  0  0  0  0
 26 27  1  0  0  0  0
 28 53  1  0  0  0  0
 29 54  1  0  0  0  0
M  ZZC   1 c1
M  ZZC   2 c2
M  ZZC   3 c3
M  ZZC   4 c4
M  ZZC   5 c5
M  ZZC   6 c6
M  ZZC   7 c7
M  ZZC   8 c8
M  ZZC   9 c9
M  ZZC  10 c10
M  ZZC  11 c11
M  ZZC  12 c12
M  ZZC  13 c13
M  ZZC  14 c14
M  ZZC  15 c15
M  ZZC  16 c16
M  ZZC  17 c17
M  ZZC  18 c18
M  ZZC  19 c19
M  ZZC  20 c20
M  ZZC  21 c21
M  ZZC  22 c22
M  ZZC  23 c23
M  ZZC  24 n1
M  ZZC  25 n2
M  ZZC  26 n3
M  ZZC  27 n4
M  ZZC  28 n5
M  ZZC  29 n6
M  ZZC  30 o1
M  ZZC  31 o2
M  ZZC  32 o3
M  ZZC  33 o4
M  ZZC  34 o5
M  ZZC  35 h1
M  ZZC  36 h2
M  ZZC  37 h3
M  ZZC  38 h4
M  ZZC  39 h5
M  ZZC  40 h6
M  ZZC  41 h7
M  ZZC  42 h8
M  ZZC  43 h9
M  ZZC  44 h10
M  ZZC  45 h11
M  ZZC  46 h12
M  ZZC  47 h13
M  ZZC  48 h14
M  ZZC  49 h15
M  ZZC  50 h16
M  ZZC  51 h17
M  ZZC  52 h18
M  ZZC  53 h19
M  ZZC  54 h20
M  ZZM   1 37
M  ZZI   1 125
M  ZZM   2 37
M  ZZI   2 125
M  ZZM   3 37
M  ZZI   3 125
M  ZZM   4 37
M  ZZI   4 125
M  ZZM   5 37
M  ZZI   5 125
M  ZZM   6 37
M  ZZI   6 125
M  ZZM   7 37
M  ZZI   7 125
M  ZZM   8 37
M  ZZI   8 124
M  ZZM   9 37
M  ZZI   9 124
M  ZZM  10 37
M  ZZI  10 124
M  ZZM  11 2
M  ZZI  11 120
M  ZZM  12 2
M  ZZI  12 120
M  ZZM  13 2
M  ZZI  13 120
M  ZZM  14 3
M  ZZI  14 121
M  ZZM  15 2
M  ZZI  15 120
M  ZZM  16 3
M  ZZI  16 121
M  ZZM  17 3
M  ZZI  17 121
M  ZZM  18 3
M  ZZI  18 121
M  ZZM  19 3
M  ZZI  19 121
M  ZZM  20 3
M  ZZI  20 121
M  ZZM  21 1
M  ZZI  21 112
M  ZZM  22 1
M  ZZI  22 112
M  ZZM  23 1
M  ZZI  23 113
M  ZZM  24 9
M  ZZI  24 220
M  ZZM  25 10
M  ZZI  25 191
M  ZZM  26 10
M  ZZI  26 191
M  ZZM  27 10
M  ZZI  27 192
M  ZZM  28 10
M  ZZI  28 211
M  ZZM  29 10
M  ZZI  29 211
M  ZZM  30 7
M  ZZI  30 81
M  ZZM  31 7
M  ZZI  31 81
M  ZZM  32 7
M  ZZI  32 81
M  ZZM  33 7
M  ZZI  33 81
M  ZZM  34 7
M  ZZI  34 81
M  ZZM  35 5
M  ZZI  35 1
M  ZZM  36 5
M  ZZI  36 1
M  ZZM  37 5
M  ZZI  37 1
M  ZZM  38 5
M  ZZI  38 1
M  ZZM  39 5
M  ZZI  39 1
M  ZZM  40 5
M  ZZI  40 1
M  ZZM  41 5
M  ZZI  41 1
M  ZZM  42 5
M  ZZI  42 1
M  ZZM  43 5
M  ZZI  43 1
M  ZZM  44 5
M  ZZI  44 1
M  ZZM  45 5
M  ZZI  45 1
M  ZZM  46 5
M  ZZI  46 1
M  ZZM  47 5
M  ZZI  47 1
M  ZZM  48 5
M  ZZI  48 1
M  ZZM  49 5
M  ZZI  49 1
M  ZZM  50 5
M  ZZI  50 1
M  ZZM  51 28
M  ZZI  51 11
M  ZZM  52 28
M  ZZI  52 11
M  ZZM  53 28
M  ZZI  53 11
M  ZZM  54 28
M  ZZI  54 11
M  END
> <IX>
26

> <NAME>
27

> <Score>
-37.310637

> <Natom>
54

> <Nflex>
6

> <Hbond>
-5.761759

> <Hphob>
-5.73909

> <VwInt>
-40.206315

> <Dsolv>
17.065294

> <SolEl>
2.785123

> <Eintl>
5.134948

> <RecConf>
ND

> <projPath>
icm/

> <NAME_>
27

$$$$
26
  MOLSOFT 08042116543D

 56 59  0  0  1  0  0  0  0  0999 V2000
  -23.2694   14.4143  -30.4338 C   0  0  0  0  0  0  0  0  0  0  0  0
  -22.5797   15.5202  -30.9102 C   0  0  0  0  0  0  0  0  0  0  0  0
  -22.8053   13.6992  -29.3426 C   0  0  0  0  0  0  0  0  0  0  0  0
  -21.3999   15.9202  -30.3064 C   0  0  0  0  0  0  0  0  0  0  0  0
  -21.6380   14.1207  -28.7376 C   0  0  0  0  0  0  0  0  0  0  0  0
  -20.9417   15.2008  -29.2139 C   0  0  0  0  0  0  0  0  0  0  0  0
  -20.9494   13.9991  -20.5501 C   0  0  0  0  0  0  0  0  0  0  0  0
  -23.0609   15.0751  -20.9152 C   0  0  0  0  0  0  0  0  0  0  0  0
  -17.0241   21.1032  -26.8123 C   0  0  0  0  0  0  0  0  0  0  0  0
  -20.4412   14.5696  -21.6439 C   0  0  0  0  0  0  0  0  0  0  0  0
  -16.5744   23.0682  -25.8301 C   0  0  0  0  0  0  0  0  0  0  0  0
  -18.3138   21.0492  -26.4380 C   0  0  0  0  0  0  0  0  0  0  0  0
  -22.3105   14.2531  -20.1690 C   0  0  0  0  0  0  0  0  0  0  0  0
  -22.5249   15.6892  -22.1601 C   0  0  0  0  0  0  0  0  0  0  0  0
  -18.8025   22.2004  -25.6278 C   0  0  0  0  0  0  0  0  0  0  0  0
  -19.1790   19.9046  -26.6788 C   0  0  0  0  0  0  0  0  0  0  0  0
  -18.9797   18.9894  -27.6429 C   0  0  0  0  0  0  0  0  0  0  0  0
  -19.8301   17.7772  -27.7190 C   0  0  0  0  0  0  0  0  0  0  0  0
  -20.2425   14.8920  -24.7232 C   0  0  0  0  0  0  0  0  0  0  0  0
  -20.9422   13.4722  -27.5902 C   0  0  0  0  0  0  0  0  0  0  0  0
  -19.6611   15.3644  -28.4663 C   0  0  2  0  0  0  0  0  0  0  0  0
  -19.9281   14.5431  -27.1753 C   0  0  1  0  0  0  0  0  0  0  0  0
  -22.8335   13.5787  -18.9372 C   0  0  0  0  0  0  0  0  0  0  0  0
  -20.5985   15.9470  -23.6797 C   0  0  0  0  0  0  0  0  0  0  0  0
  -16.1171   22.0893  -26.5399 N   0  0  0  0  0  0  0  0  0  0  0  0
  -17.8598   23.1546  -25.3717 N   0  0  0  0  0  0  0  0  0  0  0  0
  -21.1985   15.3876  -22.4603 N   0  0  0  0  0  0  0  0  0  0  0  0
  -19.1653   16.7338  -28.3318 N   0  0  0  0  0  0  0  0  0  0  0  0
  -20.4151   15.3158  -26.0289 N   0  0  0  0  0  0  0  0  0  0  0  0
  -23.2696   16.3858  -22.8381 O   0  0  0  0  0  0  0  0  0  0  0  0
  -19.9532   22.2790  -25.2260 O   0  0  0  0  0  0  0  0  0  0  0  0
  -20.9548   17.7365  -27.2425 O   0  0  0  0  0  0  0  0  0  0  0  0
  -19.7769   13.8006  -24.4293 O   0  0  0  0  0  0  0  0  0  0  0  0
  -24.1768   14.1023  -30.9302 H   0  0  0  0  0  0  0  0  0  0  0  0
  -22.9542   16.0622  -31.7731 H   0  0  0  0  0  0  0  0  0  0  0  0
  -23.3362   12.8258  -28.9786 H   0  0  0  0  0  0  0  0  0  0  0  0
  -20.8444   16.7675  -30.6952 H   0  0  0  0  0  0  0  0  0  0  0  0
  -20.3403   13.3433  -19.9369 H   0  0  0  0  0  0  0  0  0  0  0  0
  -24.0913   15.3018  -20.6675 H   0  0  0  0  0  0  0  0  0  0  0  0
  -16.5944   20.2859  -27.3753 H   0  0  0  0  0  0  0  0  0  0  0  0
  -19.4099   14.3902  -21.9352 H   0  0  0  0  0  0  0  0  0  0  0  0
  -15.9403   23.9164  -25.5351 H   0  0  0  0  0  0  0  0  0  0  0  0
  -20.0064   19.7803  -25.9852 H   0  0  0  0  0  0  0  0  0  0  0  0
  -18.1691   19.0616  -28.3540 H   0  0  0  0  0  0  0  0  0  0  0  0
  -21.6397   13.2069  -26.7888 H   0  0  0  0  0  0  0  0  0  0  0  0
  -20.4298   12.5748  -27.9496 H   0  0  0  0  0  0  0  0  0  0  0  0
  -18.8963   14.8385  -29.0520 H   0  0  0  0  0  0  0  0  0  0  0  0
  -19.0055   14.0601  -26.8412 H   0  0  0  0  0  0  0  0  0  0  0  0
  -22.8400   12.4897  -19.0441 H   0  0  0  0  0  0  0  0  0  0  0  0
  -23.8575   13.8940  -18.7194 H   0  0  0  0  0  0  0  0  0  0  0  0
  -22.2106   13.8186  -18.0714 H   0  0  0  0  0  0  0  0  0  0  0  0
  -19.6800   16.4747  -23.4033 H   0  0  0  0  0  0  0  0  0  0  0  0
  -21.2732   16.6869  -24.1218 H   0  0  0  0  0  0  0  0  0  0  0  0
  -18.1439   23.9510  -24.8153 H   0  0  0  0  0  0  0  0  0  0  0  0
  -18.2279   16.9016  -28.6850 H   0  0  0  0  0  0  0  0  0  0  0  0
  -20.9469   16.1635  -26.2140 H   0  0  0  0  0  0  0  0  0  0  0  0
  1 34  1  0  0  0  0
  1  2  1  0  0  0  0
  1  3  2  0  0  0  0
  2 35  1  0  0  0  0
  2  4  2  0  0  0  0
  3  5  1  0  0  0  0
  3 36  1  0  0  0  0
  4 37  1  0  0  0  0
  4  6  1  0  0  0  0
  5 20  1  0  0  0  0
  5  6  2  0  0  0  0
 21  6  1  0  0  0  0
  7 10  2  0  0  0  0
  7 38  1  0  0  0  0
  7 13  1  0  0  0  0
  8 13  2  0  0  0  0
  8 39  1  0  0  0  0
  8 14  1  0  0  0  0
  9 25  1  0  0  0  0
  9 40  1  0  0  0  0
  9 12  2  0  0  0  0
 10 27  1  0  0  0  0
 10 41  1  0  0  0  0
 11 26  1  0  0  0  0
 11 42  1  0  0  0  0
 11 25  2  0  0  0  0
 12 16  1  0  0  0  0
 12 15  1  0  0  0  0
 13 23  1  0  0  0  0
 14 30  2  0  0  0  0
 14 27  1  0  0  0  0
 15 31  2  0  0  0  0
 15 26  1  0  0  0  0
 16 17  2  0  0  0  0
 16 43  1  0  0  0  0
 17 18  1  0  0  0  0
 17 44  1  0  0  0  0
 18 28  1  0  0  0  0
 18 32  2  0  0  0  0
 19 29  1  0  0  0  0
 19 33  2  0  0  0  0
 19 24  1  0  0  0  0
 22 20  1  0  0  0  0
 20 45  1  0  0  0  0
 20 46  1  0  0  0  0
 21 47  1  0  0  0  0
 21 22  1  0  0  0  0
 21 28  1  0  0  0  0
 22 48  1  0  0  0  0
 22 29  1  0  0  0  0
 23 49  1  0  0  0  0
 23 50  1  0  0  0  0
 23 51  1  0  0  0  0
 24 52  1  0  0  0  0
 24 53  1  0  0  0  0
 24 27  1  0  0  0  0
 26 54  1  0  0  0  0
 28 55  1  0  0  0  0
 29 56  1  0  0  0  0
M  ZZC   1 c1
M  ZZC   2 c2
M  ZZC   3 c3
M  ZZC   4 c4
M  ZZC   5 c5
M  ZZC   6 c6
M  ZZC   7 c7
M  ZZC   8 c8
M  ZZC   9 c9
M  ZZC  10 c10
M  ZZC  11 c11
M  ZZC  12 c12
M  ZZC  13 c13
M  ZZC  14 c14
M  ZZC  15 c15
M  ZZC  16 c16
M  ZZC  17 c17
M  ZZC  18 c18
M  ZZC  19 c19
M  ZZC  20 c20
M  ZZC  21 c21
M  ZZC  22 c22
M  ZZC  23 c23
M  ZZC  24 c24
M  ZZC  25 n1
M  ZZC  26 n2
M  ZZC  27 n3
M  ZZC  28 n4
M  ZZC  29 n5
M  ZZC  30 o1
M  ZZC  31 o2
M  ZZC  32 o3
M  ZZC  33 o4
M  ZZC  34 h1
M  ZZC  35 h2
M  ZZC  36 h3
M  ZZC  37 h4
M  ZZC  38 h5
M  ZZC  39 h6
M  ZZC  40 h7
M  ZZC  41 h8
M  ZZC  42 h9
M  ZZC  43 h10
M  ZZC  44 h11
M  ZZC  45 h12
M  ZZC  46 h13
M  ZZC  47 h14
M  ZZC  48 h15
M  ZZC  49 h16
M  ZZC  50 h17
M  ZZC  51 h18
M  ZZC  52 h19
M  ZZC  53 h20
M  ZZC  54 h21
M  ZZC  55 h22
M  ZZC  56 h23
M  ZZM   1 37
M  ZZI   1 125
M  ZZM   2 37
M  ZZI   2 125
M  ZZM   3 37
M  ZZI   3 125
M  ZZM   4 37
M  ZZI   4 125
M  ZZM   5 37
M  ZZI   5 124
M  ZZM   6 37
M  ZZI   6 124
M  ZZM   7 2
M  ZZI   7 120
M  ZZM   8 2
M  ZZI   8 120
M  ZZM   9 2
M  ZZI   9 120
M  ZZM  10 2
M  ZZI  10 120
M  ZZM  11 3
M  ZZI  11 121
M  ZZM  12 2
M  ZZI  12 120
M  ZZM  13 2
M  ZZI  13 120
M  ZZM  14 3
M  ZZI  14 121
M  ZZM  15 3
M  ZZI  15 121
M  ZZM  16 2
M  ZZI  16 120
M  ZZM  17 2
M  ZZI  17 120
M  ZZM  18 3
M  ZZI  18 121
M  ZZM  19 3
M  ZZI  19 121
M  ZZM  20 1
M  ZZI  20 112
M  ZZM  21 1
M  ZZI  21 113
M  ZZM  22 1
M  ZZI  22 113
M  ZZM  23 1
M  ZZI  23 111
M  ZZM  24 1
M  ZZI  24 112
M  ZZM  25 9
M  ZZI  25 220
M  ZZM  26 10
M  ZZI  26 191
M  ZZM  27 10
M  ZZI  27 192
M  ZZM  28 10
M  ZZI  28 211
M  ZZM  29 10
M  ZZI  29 211
M  ZZM  30 7
M  ZZI  30 81
M  ZZM  31 7
M  ZZI  31 81
M  ZZM  32 7
M  ZZI  32 81
M  ZZM  33 7
M  ZZI  33 81
M  ZZM  34 5
M  ZZI  34 1
M  ZZM  35 5
M  ZZI  35 1
M  ZZM  36 5
M  ZZI  36 1
M  ZZM  37 5
M  ZZI  37 1
M  ZZM  38 5
M  ZZI  38 1
M  ZZM  39 5
M  ZZI  39 1
M  ZZM  40 5
M  ZZI  40 1
M  ZZM  41 5
M  ZZI  41 1
M  ZZM  42 5
M  ZZI  42 1
M  ZZM  43 5
M  ZZI  43 1
M  ZZM  44 5
M  ZZI  44 1
M  ZZM  45 5
M  ZZI  45 1
M  ZZM  46 5
M  ZZI  46 1
M  ZZM  47 5
M  ZZI  47 1
M  ZZM  48 5
M  ZZI  48 1
M  ZZM  49 5
M  ZZI  49 1
M  ZZM  50 5
M  ZZI  50 1
M  ZZM  51 5
M  ZZI  51 1
M  ZZM  52 5
M  ZZI  52 1
M  ZZM  53 5
M  ZZI  53 1
M  ZZM  54 28
M  ZZI  54 11
M  ZZM  55 28
M  ZZI  55 11
M  ZZM  56 28
M  ZZI  56 11
M  END
> <IX>
27

> <NAME>
26

> <Score>
-37.326135

> <Natom>
56

> <Nflex>
4

> <Hbond>
-6.529768

> <Hphob>
-6.192714

> <VwInt>
-41.778625

> <Dsolv>
15.984929

> <SolEl>
9.375624

> <Eintl>
7.575519

> <RecConf>
ND

> <projPath>
icm/

> <NAME_>
26

$$$$
47
  MOLSOFT 08042116563D

 56 59  0  0  1  0  0  0  0  0999 V2000
  -22.0478   13.3181  -18.9035 C   0  0  0  0  0  0  0  0  0  0  0  0
  -23.1511   13.9926  -19.3829 C   0  0  0  0  0  0  0  0  0  0  0  0
  -20.8641   13.3221  -19.6237 C   0  0  0  0  0  0  0  0  0  0  0  0
  -23.0699   14.6735  -20.5821 C   0  0  0  0  0  0  0  0  0  0  0  0
  -19.5903   14.0100  -21.5617 C   0  0  0  0  0  0  0  0  0  0  0  0
  -19.5060   14.7134  -22.7489 C   0  0  0  0  0  0  0  0  0  0  0  0
  -21.7984   15.3556  -22.5221 C   0  0  0  0  0  0  0  0  0  0  0  0
  -20.7729   13.9961  -20.8331 C   0  0  0  0  0  0  0  0  0  0  0  0
  -21.8864   14.6743  -21.3165 C   0  0  0  0  0  0  0  0  0  0  0  0
  -20.6026   15.4151  -23.2410 C   0  0  0  0  0  0  0  0  0  0  0  0
  -16.8136   22.0307  -27.2988 C   0  0  0  0  0  0  0  0  0  0  0  0
  -16.7994   23.0097  -26.2550 C   0  0  0  0  0  0  0  0  0  0  0  0
  -21.9249   14.1590  -28.1491 C   0  0  0  0  0  0  0  0  0  0  0  0
  -17.8387   21.1926  -27.4068 C   0  0  0  0  0  0  0  0  0  0  0  0
  -19.6332   14.1221  -28.8596 C   0  0  0  0  0  0  0  0  0  0  0  0
  -20.6761   14.6021  -27.9377 C   0  0  0  0  0  0  0  0  0  0  0  0
  -17.8298   23.1755  -25.4162 C   0  0  0  0  0  0  0  0  0  0  0  0
  -22.1806   13.2344  -29.2772 C   0  0  0  0  0  0  0  0  0  0  0  0
  -19.0233   22.2653  -25.5808 C   0  0  0  0  0  0  0  0  0  0  0  0
  -20.3360   15.6177  -26.9128 C   0  0  0  0  0  0  0  0  0  0  0  0
  -19.8391   19.1855  -25.6995 C   0  0  0  0  0  0  0  0  0  0  0  0
  -19.9992   20.3078  -26.7145 C   0  0  0  0  0  0  0  0  0  0  0  0
  -21.2289   17.5647  -24.3983 C   0  0  0  0  0  0  0  0  0  0  0  0
  -20.4724   16.2205  -24.5185 C   0  0  2  0  0  0  0  0  0  0  0  0
  -19.8023   13.2754  -29.8207 N   0  0  0  0  0  0  0  0  0  0  0  0
  -21.0807   12.8259  -29.9971 N   0  0  0  0  0  0  0  0  0  0  0  0
  -18.9217   21.2834  -26.5678 N   0  0  0  0  0  0  0  0  0  0  0  0
  -17.8595   24.1099  -24.3971 N   0  0  0  0  0  0  0  0  0  0  0  0
  -20.8888   15.4131  -25.6642 N   0  0  0  0  0  0  0  0  0  0  0  0
  -21.0341   18.5275  -25.4672 N   0  0  0  0  0  0  0  0  0  0  0  0
  -23.3135   12.8716  -29.5469 O   0  0  0  0  0  0  0  0  0  0  0  0
  -19.9998   22.3943  -24.8522 O   0  0  0  0  0  0  0  0  0  0  0  0
  -19.5616   16.5161  -27.2011 O   0  0  0  0  0  0  0  0  0  0  0  0
  -18.7712   18.8891  -25.1773 O   0  0  0  0  0  0  0  0  0  0  0  0
  -22.1095   12.7813  -17.9627 H   0  0  0  0  0  0  0  0  0  0  0  0
  -24.0778   13.9910  -18.8179 H   0  0  0  0  0  0  0  0  0  0  0  0
  -20.0087   12.7810  -19.2309 H   0  0  0  0  0  0  0  0  0  0  0  0
  -23.9451   15.2123  -20.9311 H   0  0  0  0  0  0  0  0  0  0  0  0
  -18.7110   13.4867  -21.1992 H   0  0  0  0  0  0  0  0  0  0  0  0
  -18.5603   14.7240  -23.2840 H   0  0  0  0  0  0  0  0  0  0  0  0
  -22.6811   15.8661  -22.8908 H   0  0  0  0  0  0  0  0  0  0  0  0
  -15.9908   21.9599  -27.9940 H   0  0  0  0  0  0  0  0  0  0  0  0
  -15.9169   23.6278  -26.1575 H   0  0  0  0  0  0  0  0  0  0  0  0
  -22.7833   14.4775  -27.5690 H   0  0  0  0  0  0  0  0  0  0  0  0
  -17.8550   20.4192  -28.1679 H   0  0  0  0  0  0  0  0  0  0  0  0
  -18.6194   14.5214  -28.6929 H   0  0  0  0  0  0  0  0  0  0  0  0
  -20.0022   19.8844  -27.7252 H   0  0  0  0  0  0  0  0  0  0  0  0
  -20.9586   20.8121  -26.5515 H   0  0  0  0  0  0  0  0  0  0  0  0
  -22.3108   17.4016  -24.3596 H   0  0  0  0  0  0  0  0  0  0  0  0
  -20.9405   18.0726  -23.4706 H   0  0  0  0  0  0  0  0  0  0  0  0
  -19.4116   16.4486  -24.6597 H   0  0  0  0  0  0  0  0  0  0  0  0
  -21.2138   12.1817  -30.7687 H   0  0  0  0  0  0  0  0  0  0  0  0
  -18.6224   24.0707  -23.7210 H   0  0  0  0  0  0  0  0  0  0  0  0
  -17.0212   24.6481  -24.1761 H   0  0  0  0  0  0  0  0  0  0  0  0
  -21.4945   14.6163  -25.4986 H   0  0  0  0  0  0  0  0  0  0  0  0
  -21.8546   18.8009  -25.9975 H   0  0  0  0  0  0  0  0  0  0  0  0
  1 35  1  0  0  0  0
  1  2  1  0  0  0  0
  1  3  2  0  0  0  0
  2 36  1  0  0  0  0
  2  4  2  0  0  0  0
  3  8  1  0  0  0  0
  3 37  1  0  0  0  0
  4 38  1  0  0  0  0
  4  9  1  0  0  0  0
  5  6  2  0  0  0  0
  5 39  1  0  0  0  0
  5  8  1  0  0  0  0
  6 10  1  0  0  0  0
  6 40  1  0  0  0  0
  7  9  1  0  0  0  0
  7 41  1  0  0  0  0
  7 10  2  0  0  0  0
  8  9  2  0  0  0  0
 24 10  1  0  0  0  0
 11 14  2  0  0  0  0
 11 42  1  0  0  0  0
 11 12  1  0  0  0  0
 12 43  1  0  0  0  0
 12 17  2  0  0  0  0
 13 16  2  0  0  0  0
 13 44  1  0  0  0  0
 13 18  1  0  0  0  0
 14 27  1  0  0  0  0
 14 45  1  0  0  0  0
 15 25  2  0  0  0  0
 15 46  1  0  0  0  0
 15 16  1  0  0  0  0
 16 20  1  0  0  0  0
 17 19  1  0  0  0  0
 17 28  1  0  0  0  0
 18 31  2  0  0  0  0
 18 26  1  0  0  0  0
 19 32  2  0  0  0  0
 19 27  1  0  0  0  0
 20 29  1  0  0  0  0
 20 33  2  0  0  0  0
 21 30  1  0  0  0  0
 21 34  2  0  0  0  0
 21 22  1  0  0  0  0
 22 47  1  0  0  0  0
 22 48  1  0  0  0  0
 22 27  1  0  0  0  0
 24 23  1  0  0  0  0
 23 49  1  0  0  0  0
 23 50  1  0  0  0  0
 23 30  1  0  0  0  0
 24 51  1  0  0  0  0
 24 29  1  0  0  0  0
 25 26  1  0  0  0  0
 26 52  1  0  0  0  0
 28 53  1  0  0  0  0
 28 54  1  0  0  0  0
 29 55  1  0  0  0  0
 30 56  1  0  0  0  0
M  ZZC   1 c1
M  ZZC   2 c2
M  ZZC   3 c3
M  ZZC   4 c4
M  ZZC   5 c5
M  ZZC   6 c6
M  ZZC   7 c7
M  ZZC   8 c8
M  ZZC   9 c9
M  ZZC  10 c10
M  ZZC  11 c11
M  ZZC  12 c12
M  ZZC  13 c13
M  ZZC  14 c14
M  ZZC  15 c15
M  ZZC  16 c16
M  ZZC  17 c17
M  ZZC  18 c18
M  ZZC  19 c19
M  ZZC  20 c20
M  ZZC  21 c21
M  ZZC  22 c22
M  ZZC  23 c23
M  ZZC  24 c24
M  ZZC  25 n1
M  ZZC  26 n2
M  ZZC  27 n3
M  ZZC  28 n4
M  ZZC  29 n5
M  ZZC  30 n6
M  ZZC  31 o1
M  ZZC  32 o2
M  ZZC  33 o3
M  ZZC  34 o4
M  ZZC  35 h1
M  ZZC  36 h2
M  ZZC  37 h3
M  ZZC  38 h4
M  ZZC  39 h5
M  ZZC  40 h6
M  ZZC  41 h7
M  ZZC  42 h8
M  ZZC  43 h9
M  ZZC  44 h10
M  ZZC  45 h11
M  ZZC  46 h12
M  ZZC  47 h13
M  ZZC  48 h14
M  ZZC  49 h15
M  ZZC  50 h16
M  ZZC  51 h17
M  ZZC  52 h18
M  ZZC  53 h19
M  ZZC  54 h20
M  ZZC  55 h21
M  ZZC  56 h22
M  ZZM   1 37
M  ZZI   1 125
M  ZZM   2 37
M  ZZI   2 125
M  ZZM   3 37
M  ZZI   3 125
M  ZZM   4 37
M  ZZI   4 125
M  ZZM   5 37
M  ZZI   5 125
M  ZZM   6 37
M  ZZI   6 125
M  ZZM   7 37
M  ZZI   7 125
M  ZZM   8 37
M  ZZI   8 124
M  ZZM   9 37
M  ZZI   9 124
M  ZZM  10 37
M  ZZI  10 124
M  ZZM  11 2
M  ZZI  11 120
M  ZZM  12 2
M  ZZI  12 120
M  ZZM  13 2
M  ZZI  13 120
M  ZZM  14 2
M  ZZI  14 120
M  ZZM  15 3
M  ZZI  15 121
M  ZZM  16 2
M  ZZI  16 120
M  ZZM  17 2
M  ZZI  17 120
M  ZZM  18 3
M  ZZI  18 121
M  ZZM  19 3
M  ZZI  19 121
M  ZZM  20 3
M  ZZI  20 121
M  ZZM  21 3
M  ZZI  21 121
M  ZZM  22 1
M  ZZI  22 112
M  ZZM  23 1
M  ZZI  23 112
M  ZZM  24 1
M  ZZI  24 113
M  ZZM  25 9
M  ZZI  25 220
M  ZZM  26 10
M  ZZI  26 191
M  ZZM  27 10
M  ZZI  27 192
M  ZZM  28 40
M  ZZI  28 224
M  ZZM  29 10
M  ZZI  29 211
M  ZZM  30 10
M  ZZI  30 211
M  ZZM  31 7
M  ZZI  31 81
M  ZZM  32 7
M  ZZI  32 81
M  ZZM  33 7
M  ZZI  33 81
M  ZZM  34 7
M  ZZI  34 81
M  ZZM  35 5
M  ZZI  35 1
M  ZZM  36 5
M  ZZI  36 1
M  ZZM  37 5
M  ZZI  37 1
M  ZZM  38 5
M  ZZI  38 1
M  ZZM  39 5
M  ZZI  39 1
M  ZZM  40 5
M  ZZI  40 1
M  ZZM  41 5
M  ZZI  41 1
M  ZZM  42 5
M  ZZI  42 1
M  ZZM  43 5
M  ZZI  43 1
M  ZZM  44 5
M  ZZI  44 1
M  ZZM  45 5
M  ZZI  45 1
M  ZZM  46 5
M  ZZI  46 1
M  ZZM  47 5
M  ZZI  47 1
M  ZZM  48 5
M  ZZI  48 1
M  ZZM  49 5
M  ZZI  49 1
M  ZZM  50 5
M  ZZI  50 1
M  ZZM  51 5
M  ZZI  51 1
M  ZZM  52 28
M  ZZI  52 11
M  ZZM  53 28
M  ZZI  53 11
M  ZZM  54 28
M  ZZI  54 11
M  ZZM  55 28
M  ZZI  55 11
M  ZZM  56 28
M  ZZI  56 11
M  END
> <IX>
28

> <NAME>
47

> <Score>
-39.775704

> <Natom>
56

> <Nflex>
6

> <Hbond>
-7.057463

> <Hphob>
-5.955774

> <VwInt>
-45.326765

> <Dsolv>
19.270708

> <SolEl>
5.884735

> <Eintl>
9.099759

> <RecConf>
ND

> <projPath>
icm/

> <NAME_>
47

$$$$
18
  MOLSOFT 08042116583D

 57 60  0  0  1  0  0  0  0  0999 V2000
  -21.4337   13.1431  -28.6198 C   0  0  0  0  0  0  0  0  0  0  0  0
  -22.6004   13.8661  -28.7799 C   0  0  0  0  0  0  0  0  0  0  0  0
  -20.5203   13.5173  -27.6511 C   0  0  0  0  0  0  0  0  0  0  0  0
  -22.8506   14.9688  -27.9797 C   0  0  0  0  0  0  0  0  0  0  0  0
  -19.8472   15.0234  -25.8874 C   0  0  0  0  0  0  0  0  0  0  0  0
  -20.0626   16.1560  -25.1240 C   0  0  0  0  0  0  0  0  0  0  0  0
  -22.1629   16.4847  -26.2125 C   0  0  0  0  0  0  0  0  0  0  0  0
  -20.7629   14.6287  -26.8497 C   0  0  0  0  0  0  0  0  0  0  0  0
  -21.9328   15.3658  -27.0121 C   0  0  0  0  0  0  0  0  0  0  0  0
  -21.2268   16.9062  -25.2661 C   0  0  0  0  0  0  0  0  0  0  0  0
  -20.8891   18.9595  -31.2195 C   0  0  0  0  0  0  0  0  0  0  0  0
  -20.6661   20.1700  -33.1012 C   0  0  0  0  0  0  0  0  0  0  0  0
  -20.3445   19.8751  -30.4004 C   0  0  0  0  0  0  0  0  0  0  0  0
  -19.9880   21.1785  -31.0385 C   0  0  0  0  0  0  0  0  0  0  0  0
  -20.7762   13.4264  -21.4660 C   0  0  0  0  0  0  0  0  0  0  0  0
  -22.4513   14.3906  -20.3294 C   0  0  0  0  0  0  0  0  0  0  0  0
  -20.1579   19.5987  -28.9834 C   0  0  0  0  0  0  0  0  0  0  0  0
  -19.3580   20.2785  -28.1416 C   0  0  0  0  0  0  0  0  0  0  0  0
  -19.2275   19.8456  -26.7303 C   0  0  0  0  0  0  0  0  0  0  0  0
  -22.4818   17.2351  -22.3102 C   0  0  0  0  0  0  0  0  0  0  0  0
  -20.6329   14.8998  -21.7086 C   0  0  0  0  0  0  0  0  0  0  0  0
  -22.1083   16.8091  -20.9002 C   0  0  0  0  0  0  0  0  0  0  0  0
  -20.4867   19.2706  -24.6953 C   0  0  0  0  0  0  0  0  0  0  0  0
  -21.4849   18.1365  -24.4117 C   0  0  2  0  0  0  0  0  0  0  0  0
  -21.0811   19.0681  -32.5710 N   0  0  0  0  0  0  0  0  0  0  0  0
  -20.1073   21.1966  -32.4001 N   0  0  0  0  0  0  0  0  0  0  0  0
  -21.8487   13.2283  -20.6484 N   0  0  0  0  0  0  0  0  0  0  0  0
  -21.7515   15.3951  -20.9272 N   0  0  0  0  0  0  0  0  0  0  0  0
  -20.4345   19.6766  -26.0881 N   0  0  0  0  0  0  0  0  0  0  0  0
  -21.4238   17.8020  -22.9972 N   0  0  0  0  0  0  0  0  0  0  0  0
  -19.6479   22.1702  -30.4124 O   0  0  0  0  0  0  0  0  0  0  0  0
  -20.0589   12.5646  -21.9466 O   0  0  0  0  0  0  0  0  0  0  0  0
  -23.4444   14.4948  -19.6301 O   0  0  0  0  0  0  0  0  0  0  0  0
  -18.1308   19.6913  -26.2142 O   0  0  0  0  0  0  0  0  0  0  0  0
  -23.5733   16.9996  -22.8082 O   0  0  0  0  0  0  0  0  0  0  0  0
  -21.2365   12.2801  -29.2484 H   0  0  0  0  0  0  0  0  0  0  0  0
  -23.3184   13.5700  -29.5375 H   0  0  0  0  0  0  0  0  0  0  0  0
  -19.6104   12.9375  -27.5320 H   0  0  0  0  0  0  0  0  0  0  0  0
  -23.7707   15.5249  -28.1241 H   0  0  0  0  0  0  0  0  0  0  0  0
  -18.9476   14.4437  -25.7266 H   0  0  0  0  0  0  0  0  0  0  0  0
  -19.3118   16.4398  -24.3923 H   0  0  0  0  0  0  0  0  0  0  0  0
  -23.0864   17.0445  -26.3348 H   0  0  0  0  0  0  0  0  0  0  0  0
  -21.1901   17.9957  -30.8189 H   0  0  0  0  0  0  0  0  0  0  0  0
  -20.7367   20.3619  -34.1824 H   0  0  0  0  0  0  0  0  0  0  0  0
  -20.6951   18.7318  -28.6073 H   0  0  0  0  0  0  0  0  0  0  0  0
  -18.7141   21.0944  -28.4466 H   0  0  0  0  0  0  0  0  0  0  0  0
  -19.6848   15.2912  -21.3284 H   0  0  0  0  0  0  0  0  0  0  0  0
  -20.7853   15.1039  -22.7677 H   0  0  0  0  0  0  0  0  0  0  0  0
  -21.2507   17.3796  -20.5262 H   0  0  0  0  0  0  0  0  0  0  0  0
  -22.9610   16.9772  -20.2348 H   0  0  0  0  0  0  0  0  0  0  0  0
  -20.7629   20.1610  -24.1210 H   0  0  0  0  0  0  0  0  0  0  0  0
  -19.4814   18.9937  -24.3599 H   0  0  0  0  0  0  0  0  0  0  0  0
  -22.4986   18.5000  -24.6179 H   0  0  0  0  0  0  0  0  0  0  0  0
  -19.8601   22.0474  -32.8881 H   0  0  0  0  0  0  0  0  0  0  0  0
  -22.1638   12.3292  -20.3213 H   0  0  0  0  0  0  0  0  0  0  0  0
  -21.2965   19.9157  -26.5663 H   0  0  0  0  0  0  0  0  0  0  0  0
  -20.5157   17.8543  -22.5433 H   0  0  0  0  0  0  0  0  0  0  0  0
  1 36  1  0  0  0  0
  1  2  1  0  0  0  0
  1  3  2  0  0  0  0
  2 37  1  0  0  0  0
  2  4  2  0  0  0  0
  3  8  1  0  0  0  0
  3 38  1  0  0  0  0
  4 39  1  0  0  0  0
  4  9  1  0  0  0  0
  5  6  2  0  0  0  0
  5 40  1  0  0  0  0
  5  8  1  0  0  0  0
  6 10  1  0  0  0  0
  6 41  1  0  0  0  0
  7  9  1  0  0  0  0
  7 42  1  0  0  0  0
  7 10  2  0  0  0  0
  8  9  2  0  0  0  0
 24 10  1  0  0  0  0
 11 13  2  0  0  0  0
 11 43  1  0  0  0  0
 11 25  1  0  0  0  0
 12 25  2  0  0  0  0
 12 44  1  0  0  0  0
 12 26  1  0  0  0  0
 13 17  1  0  0  0  0
 13 14  1  0  0  0  0
 14 26  1  0  0  0  0
 14 31  2  0  0  0  0
 15 27  1  0  0  0  0
 15 32  2  0  0  0  0
 15 21  1  0  0  0  0
 16 28  1  0  0  0  0
 16 33  2  0  0  0  0
 16 27  1  0  0  0  0
 17 18  2  0  0  0  0
 17 45  1  0  0  0  0
 18 19  1  0  0  0  0
 18 46  1  0  0  0  0
 19 29  1  0  0  0  0
 19 34  2  0  0  0  0
 20 30  1  0  0  0  0
 20 35  2  0  0  0  0
 20 22  1  0  0  0  0
 21 47  1  0  0  0  0
 21 48  1  0  0  0  0
 21 28  1  0  0  0  0
 22 49  1  0  0  0  0
 22 50  1  0  0  0  0
 22 28  1  0  0  0  0
 24 23  1  0  0  0  0
 23 51  1  0  0  0  0
 23 52  1  0  0  0  0
 23 29  1  0  0  0  0
 24 53  1  0  0  0  0
 24 30  1  0  0  0  0
 26 54  1  0  0  0  0
 27 55  1  0  0  0  0
 29 56  1  0  0  0  0
 30 57  1  0  0  0  0
M  ZZC   1 c1
M  ZZC   2 c2
M  ZZC   3 c3
M  ZZC   4 c4
M  ZZC   5 c5
M  ZZC   6 c6
M  ZZC   7 c7
M  ZZC   8 c8
M  ZZC   9 c9
M  ZZC  10 c10
M  ZZC  11 c11
M  ZZC  12 c12
M  ZZC  13 c13
M  ZZC  14 c14
M  ZZC  15 c15
M  ZZC  16 c16
M  ZZC  17 c17
M  ZZC  18 c18
M  ZZC  19 c19
M  ZZC  20 c20
M  ZZC  21 c21
M  ZZC  22 c22
M  ZZC  23 c23
M  ZZC  24 c24
M  ZZC  25 n1
M  ZZC  26 n2
M  ZZC  27 n3
M  ZZC  28 n4
M  ZZC  29 n5
M  ZZC  30 n6
M  ZZC  31 o1
M  ZZC  32 o2
M  ZZC  33 o3
M  ZZC  34 o4
M  ZZC  35 o5
M  ZZC  36 h1
M  ZZC  37 h2
M  ZZC  38 h3
M  ZZC  39 h4
M  ZZC  40 h5
M  ZZC  41 h6
M  ZZC  42 h7
M  ZZC  43 h8
M  ZZC  44 h9
M  ZZC  45 h10
M  ZZC  46 h11
M  ZZC  47 h12
M  ZZC  48 h13
M  ZZC  49 h14
M  ZZC  50 h15
M  ZZC  51 h16
M  ZZC  52 h17
M  ZZC  53 h18
M  ZZC  54 h19
M  ZZC  55 h20
M  ZZC  56 h21
M  ZZC  57 h22
M  ZZM   1 37
M  ZZI   1 125
M  ZZM   2 37
M  ZZI   2 125
M  ZZM   3 37
M  ZZI   3 125
M  ZZM   4 37
M  ZZI   4 125
M  ZZM   5 37
M  ZZI   5 125
M  ZZM   6 37
M  ZZI   6 125
M  ZZM   7 37
M  ZZI   7 125
M  ZZM   8 37
M  ZZI   8 124
M  ZZM   9 37
M  ZZI   9 124
M  ZZM  10 37
M  ZZI  10 124
M  ZZM  11 2
M  ZZI  11 120
M  ZZM  12 3
M  ZZI  12 121
M  ZZM  13 2
M  ZZI  13 120
M  ZZM  14 3
M  ZZI  14 121
M  ZZM  15 3
M  ZZI  15 121
M  ZZM  16 3
M  ZZI  16 121
M  ZZM  17 2
M  ZZI  17 120
M  ZZM  18 2
M  ZZI  18 120
M  ZZM  19 3
M  ZZI  19 121
M  ZZM  20 3
M  ZZI  20 121
M  ZZM  21 1
M  ZZI  21 112
M  ZZM  22 1
M  ZZI  22 112
M  ZZM  23 1
M  ZZI  23 112
M  ZZM  24 1
M  ZZI  24 113
M  ZZM  25 9
M  ZZI  25 220
M  ZZM  26 10
M  ZZI  26 191
M  ZZM  27 10
M  ZZI  27 191
M  ZZM  28 10
M  ZZI  28 192
M  ZZM  29 10
M  ZZI  29 211
M  ZZM  30 10
M  ZZI  30 211
M  ZZM  31 7
M  ZZI  31 81
M  ZZM  32 7
M  ZZI  32 81
M  ZZM  33 7
M  ZZI  33 81
M  ZZM  34 7
M  ZZI  34 81
M  ZZM  35 7
M  ZZI  35 81
M  ZZM  36 5
M  ZZI  36 1
M  ZZM  37 5
M  ZZI  37 1
M  ZZM  38 5
M  ZZI  38 1
M  ZZM  39 5
M  ZZI  39 1
M  ZZM  40 5
M  ZZI  40 1
M  ZZM  41 5
M  ZZI  41 1
M  ZZM  42 5
M  ZZI  42 1
M  ZZM  43 5
M  ZZI  43 1
M  ZZM  44 5
M  ZZI  44 1
M  ZZM  45 5
M  ZZI  45 1
M  ZZM  46 5
M  ZZI  46 1
M  ZZM  47 5
M  ZZI  47 1
M  ZZM  48 5
M  ZZI  48 1
M  ZZM  49 5
M  ZZI  49 1
M  ZZM  50 5
M  ZZI  50 1
M  ZZM  51 5
M  ZZI  51 1
M  ZZM  52 5
M  ZZI  52 1
M  ZZM  53 5
M  ZZI  53 1
M  ZZM  54 28
M  ZZI  54 11
M  ZZM  55 28
M  ZZI  55 11
M  ZZM  56 28
M  ZZI  56 11
M  ZZM  57 28
M  ZZI  57 11
M  END
> <IX>
29

> <NAME>
18

> <Score>
-24.278877

> <Natom>
57

> <Nflex>
6

> <Hbond>
-7.659374

> <Hphob>
-6.2881

> <VwInt>
-35.064503

> <Dsolv>
23.070807

> <SolEl>
11.434116

> <Eintl>
9.878744

> <RecConf>
ND

> <projPath>
icm/

> <NAME_>
18

$$$$
8
  MOLSOFT 08042117003D

 56 59  0  0  1  0  0  0  0  0999 V2000
  -20.6059   13.3473  -29.7157 C   0  0  0  0  0  0  0  0  0  0  0  0
  -21.9305   13.3993  -29.3072 C   0  0  0  0  0  0  0  0  0  0  0  0
  -19.7820   14.4570  -29.5984 C   0  0  0  0  0  0  0  0  0  0  0  0
  -22.4399   14.5583  -28.7466 C   0  0  0  0  0  0  0  0  0  0  0  0
  -20.3111   15.6191  -29.0645 C   0  0  0  0  0  0  0  0  0  0  0  0
  -21.6046   15.6596  -28.6210 C   0  0  0  0  0  0  0  0  0  0  0  0
  -17.8332   21.3237  -26.2930 C   0  0  0  0  0  0  0  0  0  0  0  0
  -22.3539   15.4507  -21.3518 C   0  0  0  0  0  0  0  0  0  0  0  0
  -21.4044   14.8603  -22.0961 C   0  0  0  0  0  0  0  0  0  0  0  0
  -19.0255   21.5772  -25.7387 C   0  0  0  0  0  0  0  0  0  0  0  0
  -16.7585   22.3282  -26.1667 C   0  0  0  0  0  0  0  0  0  0  0  0
  -20.7701   13.6486  -21.5144 C   0  0  0  0  0  0  0  0  0  0  0  0
  -22.2623   13.9739  -19.6546 C   0  0  0  0  0  0  0  0  0  0  0  0
  -18.3127   23.7600  -24.9741 C   0  0  0  0  0  0  0  0  0  0  0  0
  -20.9552   15.3580  -23.3786 C   0  0  0  0  0  0  0  0  0  0  0  0
  -21.7782   15.8535  -24.3181 C   0  0  0  0  0  0  0  0  0  0  0  0
  -21.2045   16.2903  -25.6131 C   0  0  0  0  0  0  0  0  0  0  0  0
  -20.4968   20.0389  -27.0882 C   0  0  0  0  0  0  0  0  0  0  0  0
  -19.5959   16.9064  -28.8308 C   0  0  0  0  0  0  0  0  0  0  0  0
  -21.9136   16.9488  -27.9337 C   0  0  2  0  0  0  0  0  0  0  0  0
  -20.6978   17.8435  -28.3140 C   0  0  1  0  0  0  0  0  0  0  0  0
  -22.7109   13.3937  -18.3402 C   0  0  0  0  0  0  0  0  0  0  0  0
  -20.1492   20.5756  -25.7126 C   0  0  0  0  0  0  0  0  0  0  0  0
  -22.8375   15.0239  -20.1445 N   0  0  0  0  0  0  0  0  0  0  0  0
  -19.2486   22.7742  -25.1061 N   0  0  0  0  0  0  0  0  0  0  0  0
  -21.2417   13.3078  -20.2834 N   0  0  0  0  0  0  0  0  0  0  0  0
  -17.0911   23.4771  -25.5046 N   0  0  0  0  0  0  0  0  0  0  0  0
  -22.1699   16.7050  -26.5109 N   0  0  0  0  0  0  0  0  0  0  0  0
  -20.2242   18.6892  -27.2184 N   0  0  0  0  0  0  0  0  0  0  0  0
  -15.6477   22.0928  -26.6099 O   0  0  0  0  0  0  0  0  0  0  0  0
  -19.9144   13.0038  -22.1014 O   0  0  0  0  0  0  0  0  0  0  0  0
  -18.5530   24.8159  -24.4162 O   0  0  0  0  0  0  0  0  0  0  0  0
  -20.0002   16.2734  -25.8197 O   0  0  0  0  0  0  0  0  0  0  0  0
  -20.9857   20.7489  -27.9564 O   0  0  0  0  0  0  0  0  0  0  0  0
  -20.2132   12.4247  -30.1223 H   0  0  0  0  0  0  0  0  0  0  0  0
  -22.5609   12.5209  -29.4029 H   0  0  0  0  0  0  0  0  0  0  0  0
  -18.7412   14.4103  -29.9008 H   0  0  0  0  0  0  0  0  0  0  0  0
  -23.4627   14.5900  -28.3876 H   0  0  0  0  0  0  0  0  0  0  0  0
  -17.5910   20.3946  -26.7954 H   0  0  0  0  0  0  0  0  0  0  0  0
  -22.8263   16.3605  -21.7072 H   0  0  0  0  0  0  0  0  0  0  0  0
  -19.8879   15.2726  -23.5688 H   0  0  0  0  0  0  0  0  0  0  0  0
  -22.8506   15.9182  -24.1794 H   0  0  0  0  0  0  0  0  0  0  0  0
  -18.7871   16.7736  -28.1078 H   0  0  0  0  0  0  0  0  0  0  0  0
  -19.1671   17.2864  -29.7630 H   0  0  0  0  0  0  0  0  0  0  0  0
  -22.8318   17.3813  -28.3474 H   0  0  0  0  0  0  0  0  0  0  0  0
  -20.9981   18.4998  -29.1401 H   0  0  0  0  0  0  0  0  0  0  0  0
  -23.5533   12.7193  -18.5205 H   0  0  0  0  0  0  0  0  0  0  0  0
  -23.0368   14.1947  -17.6700 H   0  0  0  0  0  0  0  0  0  0  0  0
  -21.9036   12.8298  -17.8650 H   0  0  0  0  0  0  0  0  0  0  0  0
  -21.0654   21.0228  -25.3123 H   0  0  0  0  0  0  0  0  0  0  0  0
  -19.8916   19.7584  -25.0295 H   0  0  0  0  0  0  0  0  0  0  0  0
  -20.1541   22.9681  -24.6952 H   0  0  0  0  0  0  0  0  0  0  0  0
  -20.8257   12.4918  -19.8546 H   0  0  0  0  0  0  0  0  0  0  0  0
  -16.3726   24.1752  -25.3804 H   0  0  0  0  0  0  0  0  0  0  0  0
  -23.1417   16.6935  -26.2232 H   0  0  0  0  0  0  0  0  0  0  0  0
  -19.7715   18.1968  -26.4516 H   0  0  0  0  0  0  0  0  0  0  0  0
  1 35  1  0  0  0  0
  1  2  1  0  0  0  0
  1  3  2  0  0  0  0
  2 36  1  0  0  0  0
  2  4  2  0  0  0  0
  3  5  1  0  0  0  0
  3 37  1  0  0  0  0
  4 38  1  0  0  0  0
  4  6  1  0  0  0  0
  5 19  1  0  0  0  0
  5  6  2  0  0  0  0
 20  6  1  0  0  0  0
  7 10  2  0  0  0  0
  7 39  1  0  0  0  0
  7 11  1  0  0  0  0
  8 24  1  0  0  0  0
  8 40  1  0  0  0  0
  8  9  2  0  0  0  0
  9 15  1  0  0  0  0
  9 12  1  0  0  0  0
 10 23  1  0  0  0  0
 10 25  1  0  0  0  0
 11 30  2  0  0  0  0
 11 27  1  0  0  0  0
 12 31  2  0  0  0  0
 12 26  1  0  0  0  0
 13 26  1  0  0  0  0
 13 22  1  0  0  0  0
 13 24  2  0  0  0  0
 14 27  1  0  0  0  0
 14 32  2  0  0  0  0
 14 25  1  0  0  0  0
 15 16  2  0  0  0  0
 15 41  1  0  0  0  0
 16 17  1  0  0  0  0
 16 42  1  0  0  0  0
 17 28  1  0  0  0  0
 17 33  2  0  0  0  0
 18 29  1  0  0  0  0
 18 34  2  0  0  0  0
 18 23  1  0  0  0  0
 21 19  1  0  0  0  0
 19 44  1  0  0  0  0
 19 43  1  0  0  0  0
 20 45  1  0  0  0  0
 20 21  1  0  0  0  0
 20 28  1  0  0  0  0
 21 46  1  0  0  0  0
 21 29  1  0  0  0  0
 22 47  1  0  0  0  0
 22 48  1  0  0  0  0
 22 49  1  0  0  0  0
 23 50  1  0  0  0  0
 23 51  1  0  0  0  0
 25 52  1  0  0  0  0
 26 53  1  0  0  0  0
 27 54  1  0  0  0  0
 28 55  1  0  0  0  0
 29 56  1  0  0  0  0
M  ZZC   1 c1
M  ZZC   2 c2
M  ZZC   3 c3
M  ZZC   4 c4
M  ZZC   5 c5
M  ZZC   6 c6
M  ZZC   7 c7
M  ZZC   8 c8
M  ZZC   9 c9
M  ZZC  10 c10
M  ZZC  11 c11
M  ZZC  12 c12
M  ZZC  13 c13
M  ZZC  14 c14
M  ZZC  15 c15
M  ZZC  16 c16
M  ZZC  17 c17
M  ZZC  18 c18
M  ZZC  19 c19
M  ZZC  20 c20
M  ZZC  21 c21
M  ZZC  22 c22
M  ZZC  23 c23
M  ZZC  24 n1
M  ZZC  25 n2
M  ZZC  26 n3
M  ZZC  27 n4
M  ZZC  28 n5
M  ZZC  29 n6
M  ZZC  30 o1
M  ZZC  31 o2
M  ZZC  32 o3
M  ZZC  33 o4
M  ZZC  34 o5
M  ZZC  35 h1
M  ZZC  36 h2
M  ZZC  37 h3
M  ZZC  38 h4
M  ZZC  39 h5
M  ZZC  40 h6
M  ZZC  41 h7
M  ZZC  42 h8
M  ZZC  43 h9
M  ZZC  44 h10
M  ZZC  45 h11
M  ZZC  46 h12
M  ZZC  47 h13
M  ZZC  48 h14
M  ZZC  49 h15
M  ZZC  50 h16
M  ZZC  51 h17
M  ZZC  52 h18
M  ZZC  53 h19
M  ZZC  54 h20
M  ZZC  55 h21
M  ZZC  56 h22
M  ZZM   1 37
M  ZZI   1 125
M  ZZM   2 37
M  ZZI   2 125
M  ZZM   3 37
M  ZZI   3 125
M  ZZM   4 37
M  ZZI   4 125
M  ZZM   5 37
M  ZZI   5 124
M  ZZM   6 37
M  ZZI   6 124
M  ZZM   7 2
M  ZZI   7 120
M  ZZM   8 2
M  ZZI   8 120
M  ZZM   9 2
M  ZZI   9 120
M  ZZM  10 2
M  ZZI  10 120
M  ZZM  11 3
M  ZZI  11 121
M  ZZM  12 3
M  ZZI  12 121
M  ZZM  13 3
M  ZZI  13 121
M  ZZM  14 3
M  ZZI  14 121
M  ZZM  15 2
M  ZZI  15 120
M  ZZM  16 2
M  ZZI  16 120
M  ZZM  17 3
M  ZZI  17 121
M  ZZM  18 3
M  ZZI  18 121
M  ZZM  19 1
M  ZZI  19 112
M  ZZM  20 1
M  ZZI  20 113
M  ZZM  21 1
M  ZZI  21 113
M  ZZM  22 1
M  ZZI  22 111
M  ZZM  23 1
M  ZZI  23 112
M  ZZM  24 9
M  ZZI  24 220
M  ZZM  25 10
M  ZZI  25 191
M  ZZM  26 10
M  ZZI  26 191
M  ZZM  27 10
M  ZZI  27 191
M  ZZM  28 10
M  ZZI  28 211
M  ZZM  29 10
M  ZZI  29 211
M  ZZM  30 7
M  ZZI  30 81
M  ZZM  31 7
M  ZZI  31 81
M  ZZM  32 7
M  ZZI  32 81
M  ZZM  33 7
M  ZZI  33 81
M  ZZM  34 7
M  ZZI  34 81
M  ZZM  35 5
M  ZZI  35 1
M  ZZM  36 5
M  ZZI  36 1
M  ZZM  37 5
M  ZZI  37 1
M  ZZM  38 5
M  ZZI  38 1
M  ZZM  39 5
M  ZZI  39 1
M  ZZM  40 5
M  ZZI  40 1
M  ZZM  41 5
M  ZZI  41 1
M  ZZM  42 5
M  ZZI  42 1
M  ZZM  43 5
M  ZZI  43 1
M  ZZM  44 5
M  ZZI  44 1
M  ZZM  45 5
M  ZZI  45 1
M  ZZM  46 5
M  ZZI  46 1
M  ZZM  47 5
M  ZZI  47 1
M  ZZM  48 5
M  ZZI  48 1
M  ZZM  49 5
M  ZZI  49 1
M  ZZM  50 5
M  ZZI  50 1
M  ZZM  51 5
M  ZZI  51 1
M  ZZM  52 28
M  ZZI  52 11
M  ZZM  53 28
M  ZZI  53 11
M  ZZM  54 28
M  ZZI  54 11
M  ZZM  55 28
M  ZZI  55 11
M  ZZM  56 28
M  ZZI  56 11
M  END
> <IX>
30

> <NAME>
8

> <Score>
-37.360985

> <Natom>
56

> <Nflex>
4

> <Hbond>
-6.343886

> <Hphob>
-6.028023

> <VwInt>
-44.794859

> <Dsolv>
18.093922

> <SolEl>
7.831849

> <Eintl>
10.638698

> <RecConf>
ND

> <projPath>
icm/

> <NAME_>
8

$$$$
34
  MOLSOFT 08042117023D

 57 60  0  0  1  0  0  0  0  0999 V2000
  -22.2763   12.9874  -29.8249 C   0  0  0  0  0  0  0  0  0  0  0  0
  -23.0365   14.1193  -30.0479 C   0  0  0  0  0  0  0  0  0  0  0  0
  -23.6446   13.1315  -20.0321 C   0  0  0  0  0  0  0  0  0  0  0  0
  -21.3032   12.9902  -28.8478 C   0  0  0  0  0  0  0  0  0  0  0  0
  -22.8279   15.2540  -29.2850 C   0  0  0  0  0  0  0  0  0  0  0  0
  -20.1524   14.1056  -27.0494 C   0  0  0  0  0  0  0  0  0  0  0  0
  -22.6397   13.7762  -20.7301 C   0  0  0  0  0  0  0  0  0  0  0  0
  -19.9349   15.2400  -26.2937 C   0  0  0  0  0  0  0  0  0  0  0  0
  -21.6301   16.3992  -27.5211 C   0  0  0  0  0  0  0  0  0  0  0  0
  -24.5497   13.8874  -19.3140 C   0  0  0  0  0  0  0  0  0  0  0  0
  -23.5450   15.8262  -19.9378 C   0  0  0  0  0  0  0  0  0  0  0  0
  -21.1017   14.1134  -28.0598 C   0  0  0  0  0  0  0  0  0  0  0  0
  -21.8610   15.2597  -28.2844 C   0  0  0  0  0  0  0  0  0  0  0  0
  -20.6372   16.4168  -26.5410 C   0  0  0  0  0  0  0  0  0  0  0  0
  -22.5824   15.1637  -20.6930 C   0  0  0  0  0  0  0  0  0  0  0  0
  -17.4832   23.9092  -24.7948 C   0  0  0  0  0  0  0  0  0  0  0  0
  -16.5794   23.2557  -25.5328 C   0  0  0  0  0  0  0  0  0  0  0  0
  -18.9216   23.6072  -24.8887 C   0  0  0  0  0  0  0  0  0  0  0  0
  -16.9601   22.1903  -26.4785 C   0  0  0  0  0  0  0  0  0  0  0  0
  -22.0715   16.6057  -22.7131 C   0  0  0  0  0  0  0  0  0  0  0  0
  -18.9827   19.6347  -26.4383 C   0  0  0  0  0  0  0  0  0  0  0  0
  -21.5372   15.9239  -21.4655 C   0  0  0  0  0  0  0  0  0  0  0  0
  -18.8749   20.8357  -27.3628 C   0  0  0  0  0  0  0  0  0  0  0  0
  -21.3253   17.9837  -24.6518 C   0  0  0  0  0  0  0  0  0  0  0  0
  -20.3012   17.6672  -25.7552 C   0  0  2  0  0  0  0  0  0  0  0  0
  -24.5241   15.2260  -19.2429 N   0  0  0  0  0  0  0  0  0  0  0  0
  -19.2675   22.6354  -25.7963 N   0  0  0  0  0  0  0  0  0  0  0  0
  -18.3226   21.9490  -26.5880 N   0  0  0  0  0  0  0  0  0  0  0  0
  -21.0697   17.2299  -23.4325 N   0  0  0  0  0  0  0  0  0  0  0  0
  -20.0837   18.8217  -26.6281 N   0  0  0  0  0  0  0  0  0  0  0  0
  -19.7306   24.1970  -24.1913 O   0  0  0  0  0  0  0  0  0  0  0  0
  -16.0879   21.5799  -27.0767 O   0  0  0  0  0  0  0  0  0  0  0  0
  -23.2524   16.6100  -23.0367 O   0  0  0  0  0  0  0  0  0  0  0  0
  -18.1396   19.3870  -25.5923 O   0  0  0  0  0  0  0  0  0  0  0  0
  -22.4334   12.0921  -30.4116 H   0  0  0  0  0  0  0  0  0  0  0  0
  -23.7916   14.1239  -30.8256 H   0  0  0  0  0  0  0  0  0  0  0  0
  -23.7268   12.0519  -20.0465 H   0  0  0  0  0  0  0  0  0  0  0  0
  -20.6979   12.1040  -28.7091 H   0  0  0  0  0  0  0  0  0  0  0  0
  -23.4275   16.1374  -29.4825 H   0  0  0  0  0  0  0  0  0  0  0  0
  -19.5666   13.2147  -26.8423 H   0  0  0  0  0  0  0  0  0  0  0  0
  -21.9161   13.1988  -21.2970 H   0  0  0  0  0  0  0  0  0  0  0  0
  -19.1926   15.1944  -25.5037 H   0  0  0  0  0  0  0  0  0  0  0  0
  -22.2218   17.2905  -27.7072 H   0  0  0  0  0  0  0  0  0  0  0  0
  -25.3493   13.4090  -18.7577 H   0  0  0  0  0  0  0  0  0  0  0  0
  -23.5525   16.9103  -19.8782 H   0  0  0  0  0  0  0  0  0  0  0  0
  -17.1898   24.6759  -24.0880 H   0  0  0  0  0  0  0  0  0  0  0  0
  -15.5231   23.4676  -25.4410 H   0  0  0  0  0  0  0  0  0  0  0  0
  -21.0871   16.6846  -20.8174 H   0  0  0  0  0  0  0  0  0  0  0  0
  -20.7260   15.2485  -21.7613 H   0  0  0  0  0  0  0  0  0  0  0  0
  -18.1967   20.5790  -28.1821 H   0  0  0  0  0  0  0  0  0  0  0  0
  -19.8492   21.1178  -27.7772 H   0  0  0  0  0  0  0  0  0  0  0  0
  -21.2467   19.0359  -24.3587 H   0  0  0  0  0  0  0  0  0  0  0  0
  -22.3548   17.8234  -24.9897 H   0  0  0  0  0  0  0  0  0  0  0  0
  -19.3446   17.4784  -25.2580 H   0  0  0  0  0  0  0  0  0  0  0  0
  -20.2484   22.4013  -25.8980 H   0  0  0  0  0  0  0  0  0  0  0  0
  -20.1273   17.2547  -23.0473 H   0  0  0  0  0  0  0  0  0  0  0  0
  -20.7433   19.0193  -27.3721 H   0  0  0  0  0  0  0  0  0  0  0  0
  1 35  1  0  0  0  0
  1  2  1  0  0  0  0
  1  4  2  0  0  0  0
  2 36  1  0  0  0  0
  2  5  2  0  0  0  0
  3 10  1  0  0  0  0
  3 37  1  0  0  0  0
  3  7  2  0  0  0  0
  4 12  1  0  0  0  0
  4 38  1  0  0  0  0
  5 39  1  0  0  0  0
  5 13  1  0  0  0  0
  6 12  1  0  0  0  0
  6 40  1  0  0  0  0
  6  8  2  0  0  0  0
  7 41  1  0  0  0  0
  7 15  1  0  0  0  0
  8 42  1  0  0  0  0
  8 14  1  0  0  0  0
  9 14  2  0  0  0  0
  9 43  1  0  0  0  0
  9 13  1  0  0  0  0
 10 26  2  0  0  0  0
 10 44  1  0  0  0  0
 11 15  2  0  0  0  0
 11 45  1  0  0  0  0
 11 26  1  0  0  0  0
 12 13  2  0  0  0  0
 25 14  1  0  0  0  0
 15 22  1  0  0  0  0
 16 17  2  0  0  0  0
 16 46  1  0  0  0  0
 16 18  1  0  0  0  0
 17 19  1  0  0  0  0
 17 47  1  0  0  0  0
 18 31  2  0  0  0  0
 18 27  1  0  0  0  0
 19 28  1  0  0  0  0
 19 32  2  0  0  0  0
 20 29  1  0  0  0  0
 20 33  2  0  0  0  0
 20 22  1  0  0  0  0
 21 30  1  0  0  0  0
 21 34  2  0  0  0  0
 21 23  1  0  0  0  0
 22 48  1  0  0  0  0
 22 49  1  0  0  0  0
 23 50  1  0  0  0  0
 23 51  1  0  0  0  0
 23 28  1  0  0  0  0
 25 24  1  0  0  0  0
 24 52  1  0  0  0  0
 24 53  1  0  0  0  0
 24 29  1  0  0  0  0
 25 54  1  0  0  0  0
 25 30  1  0  0  0  0
 27 55  1  0  0  0  0
 27 28  1  0  0  0  0
 29 56  1  0  0  0  0
 30 57  1  0  0  0  0
M  ZZC   1 c1
M  ZZC   2 c2
M  ZZC   3 c3
M  ZZC   4 c4
M  ZZC   5 c5
M  ZZC   6 c6
M  ZZC   7 c7
M  ZZC   8 c8
M  ZZC   9 c9
M  ZZC  10 c10
M  ZZC  11 c11
M  ZZC  12 c12
M  ZZC  13 c13
M  ZZC  14 c14
M  ZZC  15 c15
M  ZZC  16 c16
M  ZZC  17 c17
M  ZZC  18 c18
M  ZZC  19 c19
M  ZZC  20 c20
M  ZZC  21 c21
M  ZZC  22 c22
M  ZZC  23 c23
M  ZZC  24 c24
M  ZZC  25 c25
M  ZZC  26 n1
M  ZZC  27 n2
M  ZZC  28 n3
M  ZZC  29 n4
M  ZZC  30 n5
M  ZZC  31 o1
M  ZZC  32 o2
M  ZZC  33 o3
M  ZZC  34 o4
M  ZZC  35 h1
M  ZZC  36 h2
M  ZZC  37 h3
M  ZZC  38 h4
M  ZZC  39 h5
M  ZZC  40 h6
M  ZZC  41 h7
M  ZZC  42 h8
M  ZZC  43 h9
M  ZZC  44 h10
M  ZZC  45 h11
M  ZZC  46 h12
M  ZZC  47 h13
M  ZZC  48 h14
M  ZZC  49 h15
M  ZZC  50 h16
M  ZZC  51 h17
M  ZZC  52 h18
M  ZZC  53 h19
M  ZZC  54 h20
M  ZZC  55 h21
M  ZZC  56 h22
M  ZZC  57 h23
M  ZZM   1 37
M  ZZI   1 125
M  ZZM   2 37
M  ZZI   2 125
M  ZZM   3 37
M  ZZI   3 125
M  ZZM   4 37
M  ZZI   4 125
M  ZZM   5 37
M  ZZI   5 125
M  ZZM   6 37
M  ZZI   6 125
M  ZZM   7 37
M  ZZI   7 125
M  ZZM   8 37
M  ZZI   8 125
M  ZZM   9 37
M  ZZI   9 125
M  ZZM  10 37
M  ZZI  10 125
M  ZZM  11 37
M  ZZI  11 125
M  ZZM  12 37
M  ZZI  12 124
M  ZZM  13 37
M  ZZI  13 124
M  ZZM  14 37
M  ZZI  14 124
M  ZZM  15 37
M  ZZI  15 124
M  ZZM  16 2
M  ZZI  16 120
M  ZZM  17 2
M  ZZI  17 120
M  ZZM  18 3
M  ZZI  18 121
M  ZZM  19 3
M  ZZI  19 121
M  ZZM  20 3
M  ZZI  20 121
M  ZZM  21 3
M  ZZI  21 121
M  ZZM  22 1
M  ZZI  22 112
M  ZZM  23 1
M  ZZI  23 112
M  ZZM  24 1
M  ZZI  24 112
M  ZZM  25 1
M  ZZI  25 113
M  ZZM  26 38
M  ZZI  26 223
M  ZZM  27 10
M  ZZI  27 191
M  ZZM  28 10
M  ZZI  28 192
M  ZZM  29 10
M  ZZI  29 211
M  ZZM  30 10
M  ZZI  30 211
M  ZZM  31 7
M  ZZI  31 81
M  ZZM  32 7
M  ZZI  32 81
M  ZZM  33 7
M  ZZI  33 81
M  ZZM  34 7
M  ZZI  34 81
M  ZZM  35 5
M  ZZI  35 1
M  ZZM  36 5
M  ZZI  36 1
M  ZZM  37 5
M  ZZI  37 1
M  ZZM  38 5
M  ZZI  38 1
M  ZZM  39 5
M  ZZI  39 1
M  ZZM  40 5
M  ZZI  40 1
M  ZZM  41 5
M  ZZI  41 1
M  ZZM  42 5
M  ZZI  42 1
M  ZZM  43 5
M  ZZI  43 1
M  ZZM  44 5
M  ZZI  44 1
M  ZZM  45 5
M  ZZI  45 1
M  ZZM  46 5
M  ZZI  46 1
M  ZZM  47 5
M  ZZI  47 1
M  ZZM  48 5
M  ZZI  48 1
M  ZZM  49 5
M  ZZI  49 1
M  ZZM  50 5
M  ZZI  50 1
M  ZZM  51 5
M  ZZI  51 1
M  ZZM  52 5
M  ZZI  52 1
M  ZZM  53 5
M  ZZI  53 1
M  ZZM  54 5
M  ZZI  54 1
M  ZZM  55 28
M  ZZI  55 11
M  ZZM  56 28
M  ZZI  56 11
M  ZZM  57 28
M  ZZI  57 11
M  END
> <IX>
31

> <NAME>
34

> <Score>
-27.768255

> <Natom>
57

> <Nflex>
8

> <Hbond>
-5.36858

> <Hphob>
-6.37271

> <VwInt>
-37.370878

> <Dsolv>
17.729873

> <SolEl>
5.95614

> <Eintl>
9.043979

> <RecConf>
ND

> <projPath>
icm/

> <NAME_>
34

$$$$
46
  MOLSOFT 08042117053D

 56 59  0  0  1  0  0  0  0  0999 V2000
  -21.2128   12.6720  -29.6238 C   0  0  0  0  0  0  0  0  0  0  0  0
  -22.3689   12.7513  -28.8648 C   0  0  0  0  0  0  0  0  0  0  0  0
  -20.2934   13.7062  -29.6263 C   0  0  0  0  0  0  0  0  0  0  0  0
  -22.6126   13.8531  -28.0653 C   0  0  0  0  0  0  0  0  0  0  0  0
  -20.5843   14.8289  -28.8771 C   0  0  0  0  0  0  0  0  0  0  0  0
  -21.7087   14.8963  -28.0964 C   0  0  0  0  0  0  0  0  0  0  0  0
  -19.1384   22.8313  -25.7405 C   0  0  0  0  0  0  0  0  0  0  0  0
  -22.3966   14.7401  -20.8323 C   0  0  0  0  0  0  0  0  0  0  0  0
  -22.3062   15.7341  -21.7181 C   0  0  0  0  0  0  0  0  0  0  0  0
  -18.1005   22.2430  -26.3528 C   0  0  0  0  0  0  0  0  0  0  0  0
  -16.7496   22.7220  -25.9662 C   0  0  0  0  0  0  0  0  0  0  0  0
  -20.6363   13.5069  -21.9046 C   0  0  0  0  0  0  0  0  0  0  0  0
  -20.5144   14.6415  -22.9187 C   0  0  0  0  0  0  0  0  0  0  0  0
  -17.9194   24.2134  -24.4609 C   0  0  0  0  0  0  0  0  0  0  0  0
  -18.2888   21.1885  -27.3267 C   0  0  0  0  0  0  0  0  0  0  0  0
  -19.1133   20.1619  -27.0664 C   0  0  0  0  0  0  0  0  0  0  0  0
  -19.4634   19.1217  -28.0638 C   0  0  0  0  0  0  0  0  0  0  0  0
  -22.1024   16.5942  -24.9303 C   0  0  0  0  0  0  0  0  0  0  0  0
  -19.7873   16.0791  -28.7825 C   0  0  0  0  0  0  0  0  0  0  0  0
  -21.8072   16.2033  -27.3841 C   0  0  2  0  0  0  0  0  0  0  0  0
  -20.8420   17.0527  -28.2431 C   0  0  1  0  0  0  0  0  0  0  0  0
  -17.7783   25.2898  -23.4153 C   0  0  0  0  0  0  0  0  0  0  0  0
  -21.2831   16.8317  -23.6706 C   0  0  0  0  0  0  0  0  0  0  0  0
  -19.1008   23.8149  -24.7969 N   0  0  0  0  0  0  0  0  0  0  0  0
  -21.5790   13.6506  -20.9157 N   0  0  0  0  0  0  0  0  0  0  0  0
  -16.7639   23.7016  -25.0089 N   0  0  0  0  0  0  0  0  0  0  0  0
  -21.3875   15.7073  -22.7449 N   0  0  0  0  0  0  0  0  0  0  0  0
  -20.2666   18.1608  -27.4975 N   0  0  0  0  0  0  0  0  0  0  0  0
  -21.3508   16.1320  -25.9968 N   0  0  0  0  0  0  0  0  0  0  0  0
  -15.7289   22.2459  -26.4423 O   0  0  0  0  0  0  0  0  0  0  0  0
  -19.9029   12.5402  -22.0251 O   0  0  0  0  0  0  0  0  0  0  0  0
  -19.6767   14.5502  -23.8089 O   0  0  0  0  0  0  0  0  0  0  0  0
  -19.1000   19.1358  -29.2296 O   0  0  0  0  0  0  0  0  0  0  0  0
  -23.3066   16.8005  -24.9645 O   0  0  0  0  0  0  0  0  0  0  0  0
  -21.0368   11.7900  -30.2210 H   0  0  0  0  0  0  0  0  0  0  0  0
  -23.0829   11.9384  -28.8965 H   0  0  0  0  0  0  0  0  0  0  0  0
  -19.3860   13.6493  -30.2177 H   0  0  0  0  0  0  0  0  0  0  0  0
  -23.5005   13.9091  -27.4504 H   0  0  0  0  0  0  0  0  0  0  0  0
  -20.1428   22.5122  -25.9845 H   0  0  0  0  0  0  0  0  0  0  0  0
  -23.1116   14.7496  -20.0158 H   0  0  0  0  0  0  0  0  0  0  0  0
  -22.9539   16.6030  -21.6508 H   0  0  0  0  0  0  0  0  0  0  0  0
  -17.7639   21.2774  -28.2737 H   0  0  0  0  0  0  0  0  0  0  0  0
  -19.6087   20.0905  -26.1044 H   0  0  0  0  0  0  0  0  0  0  0  0
  -18.9575   15.9416  -28.0858 H   0  0  0  0  0  0  0  0  0  0  0  0
  -19.3959   16.3962  -29.7551 H   0  0  0  0  0  0  0  0  0  0  0  0
  -22.8235   16.6124  -27.4260 H   0  0  0  0  0  0  0  0  0  0  0  0
  -21.3868   17.4782  -29.0969 H   0  0  0  0  0  0  0  0  0  0  0  0
  -18.1866   24.9256  -22.4679 H   0  0  0  0  0  0  0  0  0  0  0  0
  -18.2940   26.2095  -23.6972 H   0  0  0  0  0  0  0  0  0  0  0  0
  -16.7180   25.5099  -23.2666 H   0  0  0  0  0  0  0  0  0  0  0  0
  -20.2318   16.9865  -23.9404 H   0  0  0  0  0  0  0  0  0  0  0  0
  -21.6287   17.7520  -23.1875 H   0  0  0  0  0  0  0  0  0  0  0  0
  -21.6536   12.9027  -20.2324 H   0  0  0  0  0  0  0  0  0  0  0  0
  -15.8666   24.0397  -24.6888 H   0  0  0  0  0  0  0  0  0  0  0  0
  -20.5100   18.2312  -26.5166 H   0  0  0  0  0  0  0  0  0  0  0  0
  -20.4276   15.7431  -25.8163 H   0  0  0  0  0  0  0  0  0  0  0  0
  1 35  1  0  0  0  0
  1  2  1  0  0  0  0
  1  3  2  0  0  0  0
  2 36  1  0  0  0  0
  2  4  2  0  0  0  0
  3  5  1  0  0  0  0
  3 37  1  0  0  0  0
  4 38  1  0  0  0  0
  4  6  1  0  0  0  0
  5 19  1  0  0  0  0
  5  6  2  0  0  0  0
 20  6  1  0  0  0  0
  7 24  1  0  0  0  0
  7 39  1  0  0  0  0
  7 10  2  0  0  0  0
  8 25  1  0  0  0  0
  8 40  1  0  0  0  0
  8  9  2  0  0  0  0
  9 41  1  0  0  0  0
  9 27  1  0  0  0  0
 10 15  1  0  0  0  0
 10 11  1  0  0  0  0
 11 30  2  0  0  0  0
 11 26  1  0  0  0  0
 12 13  1  0  0  0  0
 12 31  2  0  0  0  0
 12 25  1  0  0  0  0
 13 27  1  0  0  0  0
 13 32  2  0  0  0  0
 14 26  1  0  0  0  0
 14 22  1  0  0  0  0
 14 24  2  0  0  0  0
 15 16  2  0  0  0  0
 15 42  1  0  0  0  0
 16 17  1  0  0  0  0
 16 43  1  0  0  0  0
 17 28  1  0  0  0  0
 17 33  2  0  0  0  0
 18 29  1  0  0  0  0
 18 34  2  0  0  0  0
 18 23  1  0  0  0  0
 21 19  1  0  0  0  0
 19 44  1  0  0  0  0
 19 45  1  0  0  0  0
 20 46  1  0  0  0  0
 20 29  1  0  0  0  0
 20 21  1  0  0  0  0
 21 47  1  0  0  0  0
 21 28  1  0  0  0  0
 22 48  1  0  0  0  0
 22 49  1  0  0  0  0
 22 50  1  0  0  0  0
 23 51  1  0  0  0  0
 23 52  1  0  0  0  0
 23 27  1  0  0  0  0
 25 53  1  0  0  0  0
 26 54  1  0  0  0  0
 28 55  1  0  0  0  0
 29 56  1  0  0  0  0
M  ZZC   1 c1
M  ZZC   2 c2
M  ZZC   3 c3
M  ZZC   4 c4
M  ZZC   5 c5
M  ZZC   6 c6
M  ZZC   7 c7
M  ZZC   8 c8
M  ZZC   9 c9
M  ZZC  10 c10
M  ZZC  11 c11
M  ZZC  12 c12
M  ZZC  13 c13
M  ZZC  14 c14
M  ZZC  15 c15
M  ZZC  16 c16
M  ZZC  17 c17
M  ZZC  18 c18
M  ZZC  19 c19
M  ZZC  20 c20
M  ZZC  21 c21
M  ZZC  22 c22
M  ZZC  23 c23
M  ZZC  24 n1
M  ZZC  25 n2
M  ZZC  26 n3
M  ZZC  27 n4
M  ZZC  28 n5
M  ZZC  29 n6
M  ZZC  30 o1
M  ZZC  31 o2
M  ZZC  32 o3
M  ZZC  33 o4
M  ZZC  34 o5
M  ZZC  35 h1
M  ZZC  36 h2
M  ZZC  37 h3
M  ZZC  38 h4
M  ZZC  39 h5
M  ZZC  40 h6
M  ZZC  41 h7
M  ZZC  42 h8
M  ZZC  43 h9
M  ZZC  44 h10
M  ZZC  45 h11
M  ZZC  46 h12
M  ZZC  47 h13
M  ZZC  48 h14
M  ZZC  49 h15
M  ZZC  50 h16
M  ZZC  51 h17
M  ZZC  52 h18
M  ZZC  53 h19
M  ZZC  54 h20
M  ZZC  55 h21
M  ZZC  56 h22
M  ZZM   1 37
M  ZZI   1 125
M  ZZM   2 37
M  ZZI   2 125
M  ZZM   3 37
M  ZZI   3 125
M  ZZM   4 37
M  ZZI   4 125
M  ZZM   5 37
M  ZZI   5 124
M  ZZM   6 37
M  ZZI   6 124
M  ZZM   7 2
M  ZZI   7 120
M  ZZM   8 2
M  ZZI   8 120
M  ZZM   9 2
M  ZZI   9 120
M  ZZM  10 2
M  ZZI  10 120
M  ZZM  11 3
M  ZZI  11 121
M  ZZM  12 3
M  ZZI  12 121
M  ZZM  13 3
M  ZZI  13 121
M  ZZM  14 3
M  ZZI  14 121
M  ZZM  15 2
M  ZZI  15 120
M  ZZM  16 2
M  ZZI  16 120
M  ZZM  17 3
M  ZZI  17 121
M  ZZM  18 3
M  ZZI  18 121
M  ZZM  19 1
M  ZZI  19 112
M  ZZM  20 1
M  ZZI  20 113
M  ZZM  21 1
M  ZZI  21 113
M  ZZM  22 1
M  ZZI  22 111
M  ZZM  23 1
M  ZZI  23 112
M  ZZM  24 9
M  ZZI  24 220
M  ZZM  25 10
M  ZZI  25 191
M  ZZM  26 10
M  ZZI  26 191
M  ZZM  27 10
M  ZZI  27 192
M  ZZM  28 10
M  ZZI  28 211
M  ZZM  29 10
M  ZZI  29 211
M  ZZM  30 7
M  ZZI  30 81
M  ZZM  31 7
M  ZZI  31 81
M  ZZM  32 7
M  ZZI  32 81
M  ZZM  33 7
M  ZZI  33 81
M  ZZM  34 7
M  ZZI  34 81
M  ZZM  35 5
M  ZZI  35 1
M  ZZM  36 5
M  ZZI  36 1
M  ZZM  37 5
M  ZZI  37 1
M  ZZM  38 5
M  ZZI  38 1
M  ZZM  39 5
M  ZZI  39 1
M  ZZM  40 5
M  ZZI  40 1
M  ZZM  41 5
M  ZZI  41 1
M  ZZM  42 5
M  ZZI  42 1
M  ZZM  43 5
M  ZZI  43 1
M  ZZM  44 5
M  ZZI  44 1
M  ZZM  45 5
M  ZZI  45 1
M  ZZM  46 5
M  ZZI  46 1
M  ZZM  47 5
M  ZZI  47 1
M  ZZM  48 5
M  ZZI  48 1
M  ZZM  49 5
M  ZZI  49 1
M  ZZM  50 5
M  ZZI  50 1
M  ZZM  51 5
M  ZZI  51 1
M  ZZM  52 5
M  ZZI  52 1
M  ZZM  53 28
M  ZZI  53 11
M  ZZM  54 28
M  ZZI  54 11
M  ZZM  55 28
M  ZZI  55 11
M  ZZM  56 28
M  ZZI  56 11
M  END
> <IX>
32

> <NAME>
46

> <Score>
-35.080848

> <Natom>
56

> <Nflex>
4

> <Hbond>
-6.777358

> <Hphob>
-6.071522

> <VwInt>
-41.301969

> <Dsolv>
19.345865

> <SolEl>
8.838231

> <Eintl>
7.821876

> <RecConf>
ND

> <projPath>
icm/

> <NAME_>
46

$$$$
40
  MOLSOFT 08042117073D

 60 63  0  0  1  0  0  0  0  0999 V2000
  -24.9199   17.2014  -32.0719 C   0  0  0  0  0  0  0  0  0  0  0  0
  -25.3288   18.2300  -31.2446 C   0  0  0  0  0  0  0  0  0  0  0  0
  -23.6915   16.5997  -31.8656 C   0  0  0  0  0  0  0  0  0  0  0  0
  -24.5160   18.6526  -30.2047 C   0  0  0  0  0  0  0  0  0  0  0  0
  -21.6436   16.4114  -30.5967 C   0  0  0  0  0  0  0  0  0  0  0  0
  -20.8287   16.8119  -29.5540 C   0  0  0  0  0  0  0  0  0  0  0  0
  -22.4613   18.4412  -28.9268 C   0  0  0  0  0  0  0  0  0  0  0  0
  -22.1530   13.7785  -27.5068 C   0  0  0  0  0  0  0  0  0  0  0  0
  -20.5916   12.9842  -29.1185 C   0  0  0  0  0  0  0  0  0  0  0  0
  -19.8278   13.5996  -27.0764 C   0  0  0  0  0  0  0  0  0  0  0  0
  -22.8734   17.0119  -30.8186 C   0  0  0  0  0  0  0  0  0  0  0  0
  -23.2850   18.0417  -29.9772 C   0  0  0  0  0  0  0  0  0  0  0  0
  -21.2258   17.8281  -28.6932 C   0  0  0  0  0  0  0  0  0  0  0  0
  -21.8979   13.3031  -28.7843 C   0  0  0  0  0  0  0  0  0  0  0  0
  -21.0944   13.9393  -26.6236 C   0  0  0  0  0  0  0  0  0  0  0  0
  -17.6174   24.0252  -24.3916 C   0  0  0  0  0  0  0  0  0  0  0  0
  -16.5548   23.5019  -25.0146 C   0  0  0  0  0  0  0  0  0  0  0  0
  -18.9897   23.6771  -24.7928 C   0  0  0  0  0  0  0  0  0  0  0  0
  -16.6772   22.5747  -26.1470 C   0  0  0  0  0  0  0  0  0  0  0  0
  -20.7330   15.9341  -25.1933 C   0  0  0  0  0  0  0  0  0  0  0  0
  -18.7156   20.1189  -27.1402 C   0  0  0  0  0  0  0  0  0  0  0  0
  -23.0031   13.1042  -29.7673 C   0  0  0  0  0  0  0  0  0  0  0  0
  -21.2880   14.5321  -25.2524 C   0  0  0  0  0  0  0  0  0  0  0  0
  -18.2840   21.4676  -27.6872 C   0  0  0  0  0  0  0  0  0  0  0  0
  -21.0221   18.1897  -26.1830 C   0  0  0  0  0  0  0  0  0  0  0  0
  -20.3133   18.2540  -27.5561 C   0  0  2  0  0  0  0  0  0  0  0  0
  -19.5434   13.1282  -28.2987 N   0  0  0  0  0  0  0  0  0  0  0  0
  -19.0934   22.8660  -25.8947 N   0  0  0  0  0  0  0  0  0  0  0  0
  -17.9708   22.3574  -26.5802 N   0  0  0  0  0  0  0  0  0  0  0  0
  -21.4972   16.8482  -25.8915 N   0  0  0  0  0  0  0  0  0  0  0  0
  -19.7686   19.5708  -27.8468 N   0  0  0  0  0  0  0  0  0  0  0  0
  -19.9516   24.0905  -24.1663 O   0  0  0  0  0  0  0  0  0  0  0  0
  -15.6806   22.0638  -26.6350 O   0  0  0  0  0  0  0  0  0  0  0  0
  -19.6879   16.1940  -24.6169 O   0  0  0  0  0  0  0  0  0  0  0  0
  -18.1737   19.5713  -26.1894 O   0  0  0  0  0  0  0  0  0  0  0  0
  -25.5593   16.8694  -32.8841 H   0  0  0  0  0  0  0  0  0  0  0  0
  -26.2922   18.7029  -31.4087 H   0  0  0  0  0  0  0  0  0  0  0  0
  -23.3754   15.8041  -32.5321 H   0  0  0  0  0  0  0  0  0  0  0  0
  -24.8616   19.4588  -29.5646 H   0  0  0  0  0  0  0  0  0  0  0  0
  -21.3069   15.6112  -31.2429 H   0  0  0  0  0  0  0  0  0  0  0  0
  -19.8722   16.3135  -29.4181 H   0  0  0  0  0  0  0  0  0  0  0  0
  -22.7888   19.2502  -28.2802 H   0  0  0  0  0  0  0  0  0  0  0  0
  -23.1643   14.0405  -27.2143 H   0  0  0  0  0  0  0  0  0  0  0  0
  -20.3496   12.5971  -30.1024 H   0  0  0  0  0  0  0  0  0  0  0  0
  -18.9714   13.7174  -26.4257 H   0  0  0  0  0  0  0  0  0  0  0  0
  -17.5096   24.7032  -23.5537 H   0  0  0  0  0  0  0  0  0  0  0  0
  -15.5471   23.7296  -24.7032 H   0  0  0  0  0  0  0  0  0  0  0  0
  -23.3206   12.0593  -29.7506 H   0  0  0  0  0  0  0  0  0  0  0  0
  -23.8565   13.7431  -29.5289 H   0  0  0  0  0  0  0  0  0  0  0  0
  -22.6741   13.3709  -30.7750 H   0  0  0  0  0  0  0  0  0  0  0  0
  -22.3475   14.5685  -24.9833 H   0  0  0  0  0  0  0  0  0  0  0  0
  -20.7885   13.9138  -24.4982 H   0  0  0  0  0  0  0  0  0  0  0  0
  -17.3960   21.3213  -28.3090 H   0  0  0  0  0  0  0  0  0  0  0  0
  -19.0662   21.9264  -28.3024 H   0  0  0  0  0  0  0  0  0  0  0  0
  -20.3474   18.5010  -25.3795 H   0  0  0  0  0  0  0  0  0  0  0  0
  -21.8888   18.8569  -26.1404 H   0  0  0  0  0  0  0  0  0  0  0  0
  -19.4549   17.5718  -27.5195 H   0  0  0  0  0  0  0  0  0  0  0  0
  -20.0195   22.6077  -26.2172 H   0  0  0  0  0  0  0  0  0  0  0  0
  -22.3785   16.5543  -26.3009 H   0  0  0  0  0  0  0  0  0  0  0  0
  -20.1293   20.0571  -28.6609 H   0  0  0  0  0  0  0  0  0  0  0  0
  1 36  1  0  0  0  0
  1  2  1  0  0  0  0
  1  3  2  0  0  0  0
  2 37  1  0  0  0  0
  2  4  2  0  0  0  0
  3 11  1  0  0  0  0
  3 38  1  0  0  0  0
  4 39  1  0  0  0  0
  4 12  1  0  0  0  0
  5 11  1  0  0  0  0
  5 40  1  0  0  0  0
  5  6  2  0  0  0  0
  6 41  1  0  0  0  0
  6 13  1  0  0  0  0
  7 13  2  0  0  0  0
  7 42  1  0  0  0  0
  7 12  1  0  0  0  0
  8 14  1  0  0  0  0
  8 43  1  0  0  0  0
  8 15  2  0  0  0  0
  9 27  1  0  0  0  0
  9 44  1  0  0  0  0
  9 14  2  0  0  0  0
 10 15  1  0  0  0  0
 10 45  1  0  0  0  0
 10 27  2  0  0  0  0
 11 12  2  0  0  0  0
 26 13  1  0  0  0  0
 14 22  1  0  0  0  0
 15 23  1  0  0  0  0
 16 17  2  0  0  0  0
 16 46  1  0  0  0  0
 16 18  1  0  0  0  0
 17 19  1  0  0  0  0
 17 47  1  0  0  0  0
 18 32  2  0  0  0  0
 18 28  1  0  0  0  0
 19 29  1  0  0  0  0
 19 33  2  0  0  0  0
 20 30  1  0  0  0  0
 20 34  2  0  0  0  0
 20 23  1  0  0  0  0
 21 31  1  0  0  0  0
 21 35  2  0  0  0  0
 21 24  1  0  0  0  0
 22 48  1  0  0  0  0
 22 49  1  0  0  0  0
 22 50  1  0  0  0  0
 23 51  1  0  0  0  0
 23 52  1  0  0  0  0
 24 53  1  0  0  0  0
 24 54  1  0  0  0  0
 24 29  1  0  0  0  0
 26 25  1  0  0  0  0
 25 55  1  0  0  0  0
 25 56  1  0  0  0  0
 25 30  1  0  0  0  0
 26 57  1  0  0  0  0
 26 31  1  0  0  0  0
 28 58  1  0  0  0  0
 28 29  1  0  0  0  0
 30 59  1  0  0  0  0
 31 60  1  0  0  0  0
M  ZZC   1 c1
M  ZZC   2 c2
M  ZZC   3 c3
M  ZZC   4 c4
M  ZZC   5 c5
M  ZZC   6 c6
M  ZZC   7 c7
M  ZZC   8 c8
M  ZZC   9 c9
M  ZZC  10 c10
M  ZZC  11 c11
M  ZZC  12 c12
M  ZZC  13 c13
M  ZZC  14 c14
M  ZZC  15 c15
M  ZZC  16 c16
M  ZZC  17 c17
M  ZZC  18 c18
M  ZZC  19 c19
M  ZZC  20 c20
M  ZZC  21 c21
M  ZZC  22 c22
M  ZZC  23 c23
M  ZZC  24 c24
M  ZZC  25 c25
M  ZZC  26 c26
M  ZZC  27 n1
M  ZZC  28 n2
M  ZZC  29 n3
M  ZZC  30 n4
M  ZZC  31 n5
M  ZZC  32 o1
M  ZZC  33 o2
M  ZZC  34 o3
M  ZZC  35 o4
M  ZZC  36 h1
M  ZZC  37 h2
M  ZZC  38 h3
M  ZZC  39 h4
M  ZZC  40 h5
M  ZZC  41 h6
M  ZZC  42 h7
M  ZZC  43 h8
M  ZZC  44 h9
M  ZZC  45 h10
M  ZZC  46 h11
M  ZZC  47 h12
M  ZZC  48 h13
M  ZZC  49 h14
M  ZZC  50 h15
M  ZZC  51 h16
M  ZZC  52 h17
M  ZZC  53 h18
M  ZZC  54 h19
M  ZZC  55 h20
M  ZZC  56 h21
M  ZZC  57 h22
M  ZZC  58 h23
M  ZZC  59 h24
M  ZZC  60 h25
M  ZZM   1 37
M  ZZI   1 125
M  ZZM   2 37
M  ZZI   2 125
M  ZZM   3 37
M  ZZI   3 125
M  ZZM   4 37
M  ZZI   4 125
M  ZZM   5 37
M  ZZI   5 125
M  ZZM   6 37
M  ZZI   6 125
M  ZZM   7 37
M  ZZI   7 125
M  ZZM   8 37
M  ZZI   8 125
M  ZZM   9 37
M  ZZI   9 125
M  ZZM  10 37
M  ZZI  10 125
M  ZZM  11 37
M  ZZI  11 124
M  ZZM  12 37
M  ZZI  12 124
M  ZZM  13 37
M  ZZI  13 124
M  ZZM  14 37
M  ZZI  14 124
M  ZZM  15 37
M  ZZI  15 124
M  ZZM  16 2
M  ZZI  16 120
M  ZZM  17 2
M  ZZI  17 120
M  ZZM  18 3
M  ZZI  18 121
M  ZZM  19 3
M  ZZI  19 121
M  ZZM  20 3
M  ZZI  20 121
M  ZZM  21 3
M  ZZI  21 121
M  ZZM  22 1
M  ZZI  22 111
M  ZZM  23 1
M  ZZI  23 112
M  ZZM  24 1
M  ZZI  24 112
M  ZZM  25 1
M  ZZI  25 112
M  ZZM  26 1
M  ZZI  26 113
M  ZZM  27 38
M  ZZI  27 223
M  ZZM  28 10
M  ZZI  28 191
M  ZZM  29 10
M  ZZI  29 192
M  ZZM  30 10
M  ZZI  30 211
M  ZZM  31 10
M  ZZI  31 211
M  ZZM  32 7
M  ZZI  32 81
M  ZZM  33 7
M  ZZI  33 81
M  ZZM  34 7
M  ZZI  34 81
M  ZZM  35 7
M  ZZI  35 81
M  ZZM  36 5
M  ZZI  36 1
M  ZZM  37 5
M  ZZI  37 1
M  ZZM  38 5
M  ZZI  38 1
M  ZZM  39 5
M  ZZI  39 1
M  ZZM  40 5
M  ZZI  40 1
M  ZZM  41 5
M  ZZI  41 1
M  ZZM  42 5
M  ZZI  42 1
M  ZZM  43 5
M  ZZI  43 1
M  ZZM  44 5
M  ZZI  44 1
M  ZZM  45 5
M  ZZI  45 1
M  ZZM  46 5
M  ZZI  46 1
M  ZZM  47 5
M  ZZI  47 1
M  ZZM  48 5
M  ZZI  48 1
M  ZZM  49 5
M  ZZI  49 1
M  ZZM  50 5
M  ZZI  50 1
M  ZZM  51 5
M  ZZI  51 1
M  ZZM  52 5
M  ZZI  52 1
M  ZZM  53 5
M  ZZI  53 1
M  ZZM  54 5
M  ZZI  54 1
M  ZZM  55 5
M  ZZI  55 1
M  ZZM  56 5
M  ZZI  56 1
M  ZZM  57 5
M  ZZI  57 1
M  ZZM  58 28
M  ZZI  58 11
M  ZZM  59 28
M  ZZI  59 11
M  ZZM  60 28
M  ZZI  60 11
M  END
> <IX>
33

> <NAME>
40

> <Score>
-31.572575

> <Natom>
60

> <Nflex>
8

> <Hbond>
-4.022574

> <Hphob>
-6.823491

> <VwInt>
-38.678729

> <Dsolv>
15.545246

> <SolEl>
7.139587

> <Eintl>
1.139904

> <RecConf>
ND

> <projPath>
icm/

> <NAME_>
40

$$$$
38
  MOLSOFT 08042117083D

 54 57  0  0  1  0  0  0  0  0999 V2000
  -22.0089   12.8374  -29.8315 C   0  0  0  0  0  0  0  0  0  0  0  0
  -22.9965   13.8024  -29.8566 C   0  0  0  0  0  0  0  0  0  0  0  0
  -21.0132   12.8932  -28.8788 C   0  0  0  0  0  0  0  0  0  0  0  0
  -22.9902   14.8198  -28.9209 C   0  0  0  0  0  0  0  0  0  0  0  0
  -20.0209   13.9444  -26.9483 C   0  0  0  0  0  0  0  0  0  0  0  0
  -20.0017   14.9729  -26.0271 C   0  0  0  0  0  0  0  0  0  0  0  0
  -21.9735   15.9058  -27.0150 C   0  0  0  0  0  0  0  0  0  0  0  0
  -18.7949   22.4418  -25.7862 C   0  0  0  0  0  0  0  0  0  0  0  0
  -17.2117   21.1133  -26.9652 C   0  0  0  0  0  0  0  0  0  0  0  0
  -16.4731   22.9846  -25.9140 C   0  0  0  0  0  0  0  0  0  0  0  0
  -21.0074   13.8976  -27.9224 C   0  0  0  0  0  0  0  0  0  0  0  0
  -22.0000   14.8743  -27.9461 C   0  0  0  0  0  0  0  0  0  0  0  0
  -20.9542   15.9865  -26.0664 C   0  0  0  0  0  0  0  0  0  0  0  0
  -18.5274   21.3154  -26.5554 C   0  0  0  0  0  0  0  0  0  0  0  0
  -17.7466   23.2799  -25.4714 C   0  0  0  0  0  0  0  0  0  0  0  0
  -22.3037   15.5394  -20.6903 C   0  0  0  0  0  0  0  0  0  0  0  0
  -20.2118   15.4070  -21.9195 C   0  0  0  0  0  0  0  0  0  0  0  0
  -22.2709   14.2308  -20.4408 C   0  0  0  0  0  0  0  0  0  0  0  0
  -21.2387   16.1376  -21.4514 C   0  0  0  0  0  0  0  0  0  0  0  0
  -20.2082   13.9413  -21.6804 C   0  0  0  0  0  0  0  0  0  0  0  0
  -21.2478   17.6067  -21.7049 C   0  0  0  0  0  0  0  0  0  0  0  0
  -19.5359   19.0844  -25.9875 C   0  0  0  0  0  0  0  0  0  0  0  0
  -19.6053   20.3131  -26.8762 C   0  0  0  0  0  0  0  0  0  0  0  0
  -22.0039   17.2038  -24.1096 C   0  0  0  0  0  0  0  0  0  0  0  0
  -20.8425   17.1579  -25.1173 C   0  0  2  0  0  0  0  0  0  0  0  0
  -16.1721   21.9097  -26.6629 N   0  0  0  0  0  0  0  0  0  0  0  0
  -21.2462   13.4612  -20.9197 N   0  0  0  0  0  0  0  0  0  0  0  0
  -21.6690   18.0276  -22.9519 N   0  0  0  0  0  0  0  0  0  0  0  0
  -20.7321   18.4080  -25.8678 N   0  0  0  0  0  0  0  0  0  0  0  0
  -19.3390   13.2218  -22.1442 O   0  0  0  0  0  0  0  0  0  0  0  0
  -20.9374   18.3939  -20.8250 O   0  0  0  0  0  0  0  0  0  0  0  0
  -18.4978   18.7327  -25.4497 O   0  0  0  0  0  0  0  0  0  0  0  0
  -17.9681   24.3722  -24.7250 F   0  0  0  0  0  0  0  0  0  0  0  0
  -22.0018   12.0349  -30.5571 H   0  0  0  0  0  0  0  0  0  0  0  0
  -23.7706   13.7710  -30.6144 H   0  0  0  0  0  0  0  0  0  0  0  0
  -20.2333   12.1445  -28.8955 H   0  0  0  0  0  0  0  0  0  0  0  0
  -23.7632   15.5793  -28.9663 H   0  0  0  0  0  0  0  0  0  0  0  0
  -19.2463   13.1847  -26.9033 H   0  0  0  0  0  0  0  0  0  0  0  0
  -19.2117   14.9847  -25.2823 H   0  0  0  0  0  0  0  0  0  0  0  0
  -22.7410   16.6738  -27.0499 H   0  0  0  0  0  0  0  0  0  0  0  0
  -19.7921   22.6663  -25.4223 H   0  0  0  0  0  0  0  0  0  0  0  0
  -16.9508   20.2427  -27.5571 H   0  0  0  0  0  0  0  0  0  0  0  0
  -15.6431   23.6274  -25.6518 H   0  0  0  0  0  0  0  0  0  0  0  0
  -23.1099   16.1605  -20.3147 H   0  0  0  0  0  0  0  0  0  0  0  0
  -19.3796   15.8233  -22.4754 H   0  0  0  0  0  0  0  0  0  0  0  0
  -23.0350   13.7208  -19.8620 H   0  0  0  0  0  0  0  0  0  0  0  0
  -20.5911   20.7815  -26.7783 H   0  0  0  0  0  0  0  0  0  0  0  0
  -19.5134   19.9890  -27.9187 H   0  0  0  0  0  0  0  0  0  0  0  0
  -22.9008   17.6410  -24.5616 H   0  0  0  0  0  0  0  0  0  0  0  0
  -22.2734   16.1975  -23.7760 H   0  0  0  0  0  0  0  0  0  0  0  0
  -19.9126   17.0397  -24.5517 H   0  0  0  0  0  0  0  0  0  0  0  0
  -21.2298   12.4720  -20.7047 H   0  0  0  0  0  0  0  0  0  0  0  0
  -21.6848   19.0344  -23.0705 H   0  0  0  0  0  0  0  0  0  0  0  0
  -21.5373   18.7300  -26.3934 H   0  0  0  0  0  0  0  0  0  0  0  0
  1  2  1  0  0  0  0
  1 34  1  0  0  0  0
  1  3  2  0  0  0  0
  2  4  2  0  0  0  0
  2 35  1  0  0  0  0
  3 36  1  0  0  0  0
  3 11  1  0  0  0  0
  4 12  1  0  0  0  0
  4 37  1  0  0  0  0
  5  6  2  0  0  0  0
  5 38  1  0  0  0  0
  5 11  1  0  0  0  0
  6 13  1  0  0  0  0
  6 39  1  0  0  0  0
  7 12  1  0  0  0  0
  7 40  1  0  0  0  0
  7 13  2  0  0  0  0
  8 14  1  0  0  0  0
  8 41  1  0  0  0  0
  8 15  2  0  0  0  0
  9 26  1  0  0  0  0
  9 42  1  0  0  0  0
  9 14  2  0  0  0  0
 10 15  1  0  0  0  0
 10 43  1  0  0  0  0
 10 26  2  0  0  0  0
 11 12  2  0  0  0  0
 25 13  1  0  0  0  0
 14 23  1  0  0  0  0
 15 33  1  0  0  0  0
 16 19  1  0  0  0  0
 16 44  1  0  0  0  0
 16 18  2  0  0  0  0
 17 20  1  0  0  0  0
 17 45  1  0  0  0  0
 17 19  2  0  0  0  0
 18 46  1  0  0  0  0
 18 27  1  0  0  0  0
 19 21  1  0  0  0  0
 20 27  1  0  0  0  0
 20 30  2  0  0  0  0
 21 28  1  0  0  0  0
 21 31  2  0  0  0  0
 22 23  1  0  0  0  0
 22 32  2  0  0  0  0
 22 29  1  0  0  0  0
 23 47  1  0  0  0  0
 23 48  1  0  0  0  0
 25 24  1  0  0  0  0
 24 49  1  0  0  0  0
 24 50  1  0  0  0  0
 24 28  1  0  0  0  0
 25 29  1  0  0  0  0
 25 51  1  0  0  0  0
 27 52  1  0  0  0  0
 28 53  1  0  0  0  0
 29 54  1  0  0  0  0
M  ZZC   1 c1
M  ZZC   2 c2
M  ZZC   3 c3
M  ZZC   4 c4
M  ZZC   5 c5
M  ZZC   6 c6
M  ZZC   7 c7
M  ZZC   8 c8
M  ZZC   9 c9
M  ZZC  10 c10
M  ZZC  11 c11
M  ZZC  12 c12
M  ZZC  13 c13
M  ZZC  14 c14
M  ZZC  15 c15
M  ZZC  16 c16
M  ZZC  17 c17
M  ZZC  18 c18
M  ZZC  19 c19
M  ZZC  20 c20
M  ZZC  21 c21
M  ZZC  22 c22
M  ZZC  23 c23
M  ZZC  24 c24
M  ZZC  25 c25
M  ZZC  26 n1
M  ZZC  27 n2
M  ZZC  28 n3
M  ZZC  29 n4
M  ZZC  30 o1
M  ZZC  31 o2
M  ZZC  32 o3
M  ZZC  33 f1
M  ZZC  34 h1
M  ZZC  35 h2
M  ZZC  36 h3
M  ZZC  37 h4
M  ZZC  38 h5
M  ZZC  39 h6
M  ZZC  40 h7
M  ZZC  41 h8
M  ZZC  42 h9
M  ZZC  43 h10
M  ZZC  44 h11
M  ZZC  45 h12
M  ZZC  46 h13
M  ZZC  47 h14
M  ZZC  48 h15
M  ZZC  49 h16
M  ZZC  50 h17
M  ZZC  51 h18
M  ZZC  52 h19
M  ZZC  53 h20
M  ZZC  54 h21
M  ZZM   1 37
M  ZZI   1 125
M  ZZM   2 37
M  ZZI   2 125
M  ZZM   3 37
M  ZZI   3 125
M  ZZM   4 37
M  ZZI   4 125
M  ZZM   5 37
M  ZZI   5 125
M  ZZM   6 37
M  ZZI   6 125
M  ZZM   7 37
M  ZZI   7 125
M  ZZM   8 37
M  ZZI   8 125
M  ZZM   9 37
M  ZZI   9 125
M  ZZM  10 37
M  ZZI  10 125
M  ZZM  11 37
M  ZZI  11 124
M  ZZM  12 37
M  ZZI  12 124
M  ZZM  13 37
M  ZZI  13 124
M  ZZM  14 37
M  ZZI  14 124
M  ZZM  15 37
M  ZZI  15 124
M  ZZM  16 2
M  ZZI  16 120
M  ZZM  17 2
M  ZZI  17 120
M  ZZM  18 2
M  ZZI  18 120
M  ZZM  19 2
M  ZZI  19 120
M  ZZM  20 3
M  ZZI  20 121
M  ZZM  21 3
M  ZZI  21 121
M  ZZM  22 3
M  ZZI  22 121
M  ZZM  23 1
M  ZZI  23 112
M  ZZM  24 1
M  ZZI  24 112
M  ZZM  25 1
M  ZZI  25 113
M  ZZM  26 38
M  ZZI  26 223
M  ZZM  27 10
M  ZZI  27 191
M  ZZM  28 10
M  ZZI  28 211
M  ZZM  29 10
M  ZZI  29 211
M  ZZM  30 7
M  ZZI  30 81
M  ZZM  31 7
M  ZZI  31 81
M  ZZM  32 7
M  ZZI  32 81
M  ZZM  33 11
M  ZZI  33 90
M  ZZM  34 5
M  ZZI  34 1
M  ZZM  35 5
M  ZZI  35 1
M  ZZM  36 5
M  ZZI  36 1
M  ZZM  37 5
M  ZZI  37 1
M  ZZM  38 5
M  ZZI  38 1
M  ZZM  39 5
M  ZZI  39 1
M  ZZM  40 5
M  ZZI  40 1
M  ZZM  41 5
M  ZZI  41 1
M  ZZM  42 5
M  ZZI  42 1
M  ZZM  43 5
M  ZZI  43 1
M  ZZM  44 5
M  ZZI  44 1
M  ZZM  45 5
M  ZZI  45 1
M  ZZM  46 5
M  ZZI  46 1
M  ZZM  47 5
M  ZZI  47 1
M  ZZM  48 5
M  ZZI  48 1
M  ZZM  49 5
M  ZZI  49 1
M  ZZM  50 5
M  ZZI  50 1
M  ZZM  51 5
M  ZZI  51 1
M  ZZM  52 28
M  ZZI  52 11
M  ZZM  53 28
M  ZZI  53 11
M  ZZM  54 28
M  ZZI  54 11
M  END
> <IX>
34

> <NAME>
38

> <Score>
-39.734106

> <Natom>
54

> <Nflex>
6

> <Hbond>
-6.838232

> <Hphob>
-7.128194

> <VwInt>
-41.396569

> <Dsolv>
15.396148

> <SolEl>
2.447359

> <Eintl>
11.627856

> <RecConf>
ND

> <projPath>
icm/

> <NAME_>
38

$$$$
25
  MOLSOFT 08042117103D

 53 55  0  0  1  0  0  0  0  0999 V2000
  -20.5045   13.7152  -20.5136 C   0  0  0  0  0  0  0  0  0  0  0  0
  -19.3936   13.8094  -21.3279 C   0  0  0  0  0  0  0  0  0  0  0  0
  -21.6928   14.2983  -20.9045 C   0  0  0  0  0  0  0  0  0  0  0  0
  -19.4708   14.4551  -22.5456 C   0  0  0  0  0  0  0  0  0  0  0  0
  -21.7719   14.9535  -22.1191 C   0  0  0  0  0  0  0  0  0  0  0  0
  -20.6737   15.0148  -22.9728 C   0  0  0  0  0  0  0  0  0  0  0  0
  -17.1485   21.0391  -26.7829 C   0  0  0  0  0  0  0  0  0  0  0  0
  -23.0146   15.6206  -31.4336 C   0  0  0  0  0  0  0  0  0  0  0  0
  -16.4190   22.9673  -25.8951 C   0  0  0  0  0  0  0  0  0  0  0  0
  -18.2687   20.9756  -26.0473 C   0  0  0  0  0  0  0  0  0  0  0  0
  -22.9409   16.2243  -30.2411 C   0  0  0  0  0  0  0  0  0  0  0  0
  -18.5271   22.1212  -25.1269 C   0  0  0  0  0  0  0  0  0  0  0  0
  -23.5744   17.5751  -30.1428 C   0  0  0  0  0  0  0  0  0  0  0  0
  -24.2397   17.4032  -32.4783 C   0  0  0  0  0  0  0  0  0  0  0  0
  -19.1555   19.8320  -26.1351 C   0  0  0  0  0  0  0  0  0  0  0  0
  -22.3391   15.6192  -29.0705 C   0  0  0  0  0  0  0  0  0  0  0  0
  -19.6364   19.1821  -25.0615 C   0  0  0  0  0  0  0  0  0  0  0  0
  -21.2506   14.8267  -29.0884 C   0  0  0  0  0  0  0  0  0  0  0  0
  -20.4265   17.9463  -25.2730 C   0  0  0  0  0  0  0  0  0  0  0  0
  -20.6807   14.2561  -27.8418 C   0  0  0  0  0  0  0  0  0  0  0  0
  -20.2798   14.7373  -25.4403 C   0  0  0  0  0  0  0  0  0  0  0  0
  -20.8078   15.6720  -24.3272 C   0  0  2  0  0  0  0  0  0  0  0  0
  -16.1761   22.0005  -26.7195 N   0  0  0  0  0  0  0  0  0  0  0  0
  -23.6095   16.1995  -32.5166 N   0  0  0  0  0  0  0  0  0  0  0  0
  -17.5373   23.0615  -25.1144 N   0  0  0  0  0  0  0  0  0  0  0  0
  -24.2075   18.0300  -31.2703 N   0  0  0  0  0  0  0  0  0  0  0  0
  -20.7708   15.0970  -26.7561 N   0  0  0  0  0  0  0  0  0  0  0  0
  -20.1655   16.9861  -24.3188 N   0  0  0  0  0  0  0  0  0  0  0  0
  -19.5353   22.2120  -24.4436 O   0  0  0  0  0  0  0  0  0  0  0  0
  -23.5208   18.2397  -29.1195 O   0  0  0  0  0  0  0  0  0  0  0  0
  -24.7834   17.8767  -33.4589 O   0  0  0  0  0  0  0  0  0  0  0  0
  -21.1864   17.8147  -26.2211 O   0  0  0  0  0  0  0  0  0  0  0  0
  -20.1526   13.1549  -27.8470 O   0  0  0  0  0  0  0  0  0  0  0  0
  -20.4409   13.1925  -19.5647 H   0  0  0  0  0  0  0  0  0  0  0  0
  -18.4555   13.3709  -21.0125 H   0  0  0  0  0  0  0  0  0  0  0  0
  -22.5639   14.2368  -20.2600 H   0  0  0  0  0  0  0  0  0  0  0  0
  -18.5799   14.5051  -23.1646 H   0  0  0  0  0  0  0  0  0  0  0  0
  -22.7123   15.4124  -22.4050 H   0  0  0  0  0  0  0  0  0  0  0  0
  -16.9245   20.2340  -27.4742 H   0  0  0  0  0  0  0  0  0  0  0  0
  -22.6056   14.6326  -31.6071 H   0  0  0  0  0  0  0  0  0  0  0  0
  -15.7161   23.7997  -25.7542 H   0  0  0  0  0  0  0  0  0  0  0  0
  -19.3437   19.4438  -27.1331 H   0  0  0  0  0  0  0  0  0  0  0  0
  -22.8314   15.8612  -28.1328 H   0  0  0  0  0  0  0  0  0  0  0  0
  -19.4254   19.4828  -24.0413 H   0  0  0  0  0  0  0  0  0  0  0  0
  -20.7503   14.5339  -30.0038 H   0  0  0  0  0  0  0  0  0  0  0  0
  -19.1871   14.7494  -25.4939 H   0  0  0  0  0  0  0  0  0  0  0  0
  -20.5818   13.6994  -25.2590 H   0  0  0  0  0  0  0  0  0  0  0  0
  -21.8724   15.8499  -24.5236 H   0  0  0  0  0  0  0  0  0  0  0  0
  -23.5838   15.7290  -33.4135 H   0  0  0  0  0  0  0  0  0  0  0  0
  -17.6469   23.8491  -24.4870 H   0  0  0  0  0  0  0  0  0  0  0  0
  -24.6569   18.9323  -31.2126 H   0  0  0  0  0  0  0  0  0  0  0  0
  -21.0928   16.0516  -26.8942 H   0  0  0  0  0  0  0  0  0  0  0  0
  -19.4931   17.1917  -23.5851 H   0  0  0  0  0  0  0  0  0  0  0  0
  1 34  1  0  0  0  0
  1  2  1  0  0  0  0
  1  3  2  0  0  0  0
  2 35  1  0  0  0  0
  2  4  2  0  0  0  0
  3  5  1  0  0  0  0
  3 36  1  0  0  0  0
  4 37  1  0  0  0  0
  4  6  1  0  0  0  0
  5  6  2  0  0  0  0
  5 38  1  0  0  0  0
 22  6  1  0  0  0  0
  7 23  1  0  0  0  0
  7 39  1  0  0  0  0
  7 10  2  0  0  0  0
  8 24  1  0  0  0  0
  8 40  1  0  0  0  0
  8 11  2  0  0  0  0
  9 25  1  0  0  0  0
  9 41  1  0  0  0  0
  9 23  2  0  0  0  0
 10 15  1  0  0  0  0
 10 12  1  0  0  0  0
 11 16  1  0  0  0  0
 11 13  1  0  0  0  0
 12 29  2  0  0  0  0
 12 25  1  0  0  0  0
 13 30  2  0  0  0  0
 13 26  1  0  0  0  0
 14 26  1  0  0  0  0
 14 31  2  0  0  0  0
 14 24  1  0  0  0  0
 15 17  2  0  0  0  0
 15 42  1  0  0  0  0
 16 18  2  0  0  0  0
 16 43  1  0  0  0  0
 17 19  1  0  0  0  0
 17 44  1  0  0  0  0
 18 20  1  0  0  0  0
 18 45  1  0  0  0  0
 19 28  1  0  0  0  0
 19 32  2  0  0  0  0
 20 27  1  0  0  0  0
 20 33  2  0  0  0  0
 22 21  1  0  0  0  0
 21 46  1  0  0  0  0
 21 47  1  0  0  0  0
 21 27  1  0  0  0  0
 22 48  1  0  0  0  0
 22 28  1  0  0  0  0
 24 49  1  0  0  0  0
 25 50  1  0  0  0  0
 26 51  1  0  0  0  0
 27 52  1  0  0  0  0
 28 53  1  0  0  0  0
M  ZZC   1 c1
M  ZZC   2 c2
M  ZZC   3 c3
M  ZZC   4 c4
M  ZZC   5 c5
M  ZZC   6 c6
M  ZZC   7 c7
M  ZZC   8 c8
M  ZZC   9 c9
M  ZZC  10 c10
M  ZZC  11 c11
M  ZZC  12 c12
M  ZZC  13 c13
M  ZZC  14 c14
M  ZZC  15 c15
M  ZZC  16 c16
M  ZZC  17 c17
M  ZZC  18 c18
M  ZZC  19 c19
M  ZZC  20 c20
M  ZZC  21 c21
M  ZZC  22 c22
M  ZZC  23 n1
M  ZZC  24 n2
M  ZZC  25 n3
M  ZZC  26 n4
M  ZZC  27 n5
M  ZZC  28 n6
M  ZZC  29 o1
M  ZZC  30 o2
M  ZZC  31 o3
M  ZZC  32 o4
M  ZZC  33 o5
M  ZZC  34 h1
M  ZZC  35 h2
M  ZZC  36 h3
M  ZZC  37 h4
M  ZZC  38 h5
M  ZZC  39 h6
M  ZZC  40 h7
M  ZZC  41 h8
M  ZZC  42 h9
M  ZZC  43 h10
M  ZZC  44 h11
M  ZZC  45 h12
M  ZZC  46 h13
M  ZZC  47 h14
M  ZZC  48 h15
M  ZZC  49 h16
M  ZZC  50 h17
M  ZZC  51 h18
M  ZZC  52 h19
M  ZZC  53 h20
M  ZZM   1 37
M  ZZI   1 125
M  ZZM   2 37
M  ZZI   2 125
M  ZZM   3 37
M  ZZI   3 125
M  ZZM   4 37
M  ZZI   4 125
M  ZZM   5 37
M  ZZI   5 125
M  ZZM   6 37
M  ZZI   6 124
M  ZZM   7 2
M  ZZI   7 120
M  ZZM   8 2
M  ZZI   8 120
M  ZZM   9 3
M  ZZI   9 121
M  ZZM  10 2
M  ZZI  10 120
M  ZZM  11 2
M  ZZI  11 120
M  ZZM  12 3
M  ZZI  12 121
M  ZZM  13 3
M  ZZI  13 121
M  ZZM  14 3
M  ZZI  14 121
M  ZZM  15 2
M  ZZI  15 120
M  ZZM  16 2
M  ZZI  16 120
M  ZZM  17 2
M  ZZI  17 120
M  ZZM  18 2
M  ZZI  18 120
M  ZZM  19 3
M  ZZI  19 121
M  ZZM  20 3
M  ZZI  20 121
M  ZZM  21 1
M  ZZI  21 112
M  ZZM  22 1
M  ZZI  22 113
M  ZZM  23 9
M  ZZI  23 220
M  ZZM  24 10
M  ZZI  24 191
M  ZZM  25 10
M  ZZI  25 191
M  ZZM  26 10
M  ZZI  26 191
M  ZZM  27 10
M  ZZI  27 211
M  ZZM  28 10
M  ZZI  28 211
M  ZZM  29 7
M  ZZI  29 81
M  ZZM  30 7
M  ZZI  30 81
M  ZZM  31 7
M  ZZI  31 81
M  ZZM  32 7
M  ZZI  32 81
M  ZZM  33 7
M  ZZI  33 81
M  ZZM  34 5
M  ZZI  34 1
M  ZZM  35 5
M  ZZI  35 1
M  ZZM  36 5
M  ZZI  36 1
M  ZZM  37 5
M  ZZI  37 1
M  ZZM  38 5
M  ZZI  38 1
M  ZZM  39 5
M  ZZI  39 1
M  ZZM  40 5
M  ZZI  40 1
M  ZZM  41 5
M  ZZI  41 1
M  ZZM  42 5
M  ZZI  42 1
M  ZZM  43 5
M  ZZI  43 1
M  ZZM  44 5
M  ZZI  44 1
M  ZZM  45 5
M  ZZI  45 1
M  ZZM  46 5
M  ZZI  46 1
M  ZZM  47 5
M  ZZI  47 1
M  ZZM  48 5
M  ZZI  48 1
M  ZZM  49 28
M  ZZI  49 11
M  ZZM  50 28
M  ZZI  50 11
M  ZZM  51 28
M  ZZI  51 11
M  ZZM  52 28
M  ZZI  52 11
M  ZZM  53 28
M  ZZI  53 11
M  END
> <IX>
35

> <NAME>
25

> <Score>
-32.303307

> <Natom>
53

> <Nflex>
4

> <Hbond>
-5.068615

> <Hphob>
-6.041862

> <VwInt>
-41.594203

> <Dsolv>
18.372221

> <SolEl>
9.824324

> <Eintl>
5.832199

> <RecConf>
ND

> <projPath>
icm/

> <NAME_>
25

$$$$
51
  MOLSOFT 08042117123D

 56 59  0  0  1  0  0  0  0  0999 V2000
  -23.8235   16.1211  -31.5663 C   0  0  0  0  0  0  0  0  0  0  0  0
  -23.0043   17.2379  -31.6665 C   0  0  0  0  0  0  0  0  0  0  0  0
  -23.3974   15.0014  -30.8684 C   0  0  0  0  0  0  0  0  0  0  0  0
  -21.7547   17.2524  -31.0640 C   0  0  0  0  0  0  0  0  0  0  0  0
  -22.1561   15.0277  -30.2659 C   0  0  0  0  0  0  0  0  0  0  0  0
  -21.3480   16.1323  -30.3523 C   0  0  0  0  0  0  0  0  0  0  0  0
  -17.0787   21.0740  -26.8384 C   0  0  0  0  0  0  0  0  0  0  0  0
  -21.9665   15.4606  -22.2602 C   0  0  0  0  0  0  0  0  0  0  0  0
  -16.6387   22.9824  -25.7406 C   0  0  0  0  0  0  0  0  0  0  0  0
  -18.3792   21.0035  -26.5009 C   0  0  0  0  0  0  0  0  0  0  0  0
  -21.1427   14.4741  -22.6495 C   0  0  0  0  0  0  0  0  0  0  0  0
  -18.8753   22.1141  -25.6367 C   0  0  0  0  0  0  0  0  0  0  0  0
  -20.8123   13.4593  -21.6214 C   0  0  0  0  0  0  0  0  0  0  0  0
  -22.3619   14.6126  -20.2032 C   0  0  0  0  0  0  0  0  0  0  0  0
  -19.2798   19.9226  -26.8891 C   0  0  0  0  0  0  0  0  0  0  0  0
  -20.5927   14.2887  -23.9769 C   0  0  0  0  0  0  0  0  0  0  0  0
  -18.9818   18.9587  -27.7780 C   0  0  0  0  0  0  0  0  0  0  0  0
  -21.1521   14.7222  -25.1165 C   0  0  0  0  0  0  0  0  0  0  0  0
  -19.9367   17.8827  -28.1492 C   0  0  0  0  0  0  0  0  0  0  0  0
  -20.5825   14.2092  -26.3821 C   0  0  0  0  0  0  0  0  0  0  0  0
  -21.4998   13.9144  -29.5182 C   0  0  0  0  0  0  0  0  0  0  0  0
  -20.0385   15.8678  -29.6777 C   0  0  2  0  0  0  0  0  0  0  0  0
  -20.3800   14.6614  -28.7838 C   0  0  1  0  0  0  0  0  0  0  0  0
  -23.0623   14.5690  -18.8710 C   0  0  0  0  0  0  0  0  0  0  0  0
  -16.1710   22.0348  -26.4850 N   0  0  0  0  0  0  0  0  0  0  0  0
  -22.5972   15.5670  -21.0473 N   0  0  0  0  0  0  0  0  0  0  0  0
  -17.9351   23.0512  -25.3116 N   0  0  0  0  0  0  0  0  0  0  0  0
  -21.4942   13.5802  -20.4503 N   0  0  0  0  0  0  0  0  0  0  0  0
  -19.3662   17.0007  -29.0458 N   0  0  0  0  0  0  0  0  0  0  0  0
  -20.8274   15.0332  -27.4471 N   0  0  0  0  0  0  0  0  0  0  0  0
  -20.0329   22.1793  -25.2525 O   0  0  0  0  0  0  0  0  0  0  0  0
  -19.9991   12.5773  -21.8417 O   0  0  0  0  0  0  0  0  0  0  0  0
  -21.0712   17.8173  -27.6980 O   0  0  0  0  0  0  0  0  0  0  0  0
  -19.9795   13.1498  -26.4568 O   0  0  0  0  0  0  0  0  0  0  0  0
  -24.7970   16.1208  -32.0465 H   0  0  0  0  0  0  0  0  0  0  0  0
  -23.3419   18.1029  -32.2279 H   0  0  0  0  0  0  0  0  0  0  0  0
  -24.0152   14.1148  -30.8022 H   0  0  0  0  0  0  0  0  0  0  0  0
  -21.1098   18.1197  -31.1599 H   0  0  0  0  0  0  0  0  0  0  0  0
  -16.6382   20.3035  -27.4552 H   0  0  0  0  0  0  0  0  0  0  0  0
  -22.2330   16.2469  -22.9584 H   0  0  0  0  0  0  0  0  0  0  0  0
  -16.0071   23.8130  -25.3890 H   0  0  0  0  0  0  0  0  0  0  0  0
  -20.2555   19.9156  -26.4113 H   0  0  0  0  0  0  0  0  0  0  0  0
  -19.7118   13.6538  -24.0340 H   0  0  0  0  0  0  0  0  0  0  0  0
  -18.0297   18.9303  -28.2843 H   0  0  0  0  0  0  0  0  0  0  0  0
  -22.0425   15.3385  -25.1633 H   0  0  0  0  0  0  0  0  0  0  0  0
  -22.1970   13.4079  -28.8405 H   0  0  0  0  0  0  0  0  0  0  0  0
  -21.0919   13.1848  -30.2269 H   0  0  0  0  0  0  0  0  0  0  0  0
  -19.3453   15.5187  -30.4439 H   0  0  0  0  0  0  0  0  0  0  0  0
  -19.5017   14.0155  -28.6663 H   0  0  0  0  0  0  0  0  0  0  0  0
  -24.1024   14.2697  -19.0308 H   0  0  0  0  0  0  0  0  0  0  0  0
  -23.0533   15.5633  -18.4146 H   0  0  0  0  0  0  0  0  0  0  0  0
  -22.5883   13.8511  -18.1942 H   0  0  0  0  0  0  0  0  0  0  0  0
  -18.2304   23.8205  -24.7238 H   0  0  0  0  0  0  0  0  0  0  0  0
  -21.3168   12.8649  -19.7550 H   0  0  0  0  0  0  0  0  0  0  0  0
  -18.3723   17.0819  -29.2353 H   0  0  0  0  0  0  0  0  0  0  0  0
  -21.3412   15.9047  -27.3244 H   0  0  0  0  0  0  0  0  0  0  0  0
  1 35  1  0  0  0  0
  1  2  1  0  0  0  0
  1  3  2  0  0  0  0
  2 36  1  0  0  0  0
  2  4  2  0  0  0  0
  3  5  1  0  0  0  0
  3 37  1  0  0  0  0
  4 38  1  0  0  0  0
  4  6  1  0  0  0  0
  5 21  1  0  0  0  0
  5  6  2  0  0  0  0
 22  6  1  0  0  0  0
  7 25  1  0  0  0  0
  7 39  1  0  0  0  0
  7 10  2  0  0  0  0
  8 26  1  0  0  0  0
  8 40  1  0  0  0  0
  8 11  2  0  0  0  0
  9 27  1  0  0  0  0
  9 41  1  0  0  0  0
  9 25  2  0  0  0  0
 10 15  1  0  0  0  0
 10 12  1  0  0  0  0
 11 16  1  0  0  0  0
 11 13  1  0  0  0  0
 12 31  2  0  0  0  0
 12 27  1  0  0  0  0
 13 32  2  0  0  0  0
 13 28  1  0  0  0  0
 14 28  1  0  0  0  0
 14 24  1  0  0  0  0
 14 26  2  0  0  0  0
 15 17  2  0  0  0  0
 15 42  1  0  0  0  0
 16 18  2  0  0  0  0
 16 43  1  0  0  0  0
 17 19  1  0  0  0  0
 17 44  1  0  0  0  0
 18 20  1  0  0  0  0
 18 45  1  0  0  0  0
 19 29  1  0  0  0  0
 19 33  2  0  0  0  0
 20 30  1  0  0  0  0
 20 34  2  0  0  0  0
 23 21  1  0  0  0  0
 21 46  1  0  0  0  0
 21 47  1  0  0  0  0
 22 48  1  0  0  0  0
 22 29  1  0  0  0  0
 22 23  1  0  0  0  0
 23 49  1  0  0  0  0
 23 30  1  0  0  0  0
 24 50  1  0  0  0  0
 24 51  1  0  0  0  0
 24 52  1  0  0  0  0
 27 53  1  0  0  0  0
 28 54  1  0  0  0  0
 29 55  1  0  0  0  0
 30 56  1  0  0  0  0
M  ZZC   1 c1
M  ZZC   2 c2
M  ZZC   3 c3
M  ZZC   4 c4
M  ZZC   5 c5
M  ZZC   6 c6
M  ZZC   7 c7
M  ZZC   8 c8
M  ZZC   9 c9
M  ZZC  10 c10
M  ZZC  11 c11
M  ZZC  12 c12
M  ZZC  13 c13
M  ZZC  14 c14
M  ZZC  15 c15
M  ZZC  16 c16
M  ZZC  17 c17
M  ZZC  18 c18
M  ZZC  19 c19
M  ZZC  20 c20
M  ZZC  21 c21
M  ZZC  22 c22
M  ZZC  23 c23
M  ZZC  24 c24
M  ZZC  25 n1
M  ZZC  26 n2
M  ZZC  27 n3
M  ZZC  28 n4
M  ZZC  29 n5
M  ZZC  30 n6
M  ZZC  31 o1
M  ZZC  32 o2
M  ZZC  33 o3
M  ZZC  34 o4
M  ZZC  35 h1
M  ZZC  36 h2
M  ZZC  37 h3
M  ZZC  38 h4
M  ZZC  39 h5
M  ZZC  40 h6
M  ZZC  41 h7
M  ZZC  42 h8
M  ZZC  43 h9
M  ZZC  44 h10
M  ZZC  45 h11
M  ZZC  46 h12
M  ZZC  47 h13
M  ZZC  48 h14
M  ZZC  49 h15
M  ZZC  50 h16
M  ZZC  51 h17
M  ZZC  52 h18
M  ZZC  53 h19
M  ZZC  54 h20
M  ZZC  55 h21
M  ZZC  56 h22
M  ZZM   1 37
M  ZZI   1 125
M  ZZM   2 37
M  ZZI   2 125
M  ZZM   3 37
M  ZZI   3 125
M  ZZM   4 37
M  ZZI   4 125
M  ZZM   5 37
M  ZZI   5 124
M  ZZM   6 37
M  ZZI   6 124
M  ZZM   7 2
M  ZZI   7 120
M  ZZM   8 2
M  ZZI   8 120
M  ZZM   9 3
M  ZZI   9 121
M  ZZM  10 2
M  ZZI  10 120
M  ZZM  11 2
M  ZZI  11 120
M  ZZM  12 3
M  ZZI  12 121
M  ZZM  13 3
M  ZZI  13 121
M  ZZM  14 3
M  ZZI  14 121
M  ZZM  15 2
M  ZZI  15 120
M  ZZM  16 2
M  ZZI  16 120
M  ZZM  17 2
M  ZZI  17 120
M  ZZM  18 2
M  ZZI  18 120
M  ZZM  19 3
M  ZZI  19 121
M  ZZM  20 3
M  ZZI  20 121
M  ZZM  21 1
M  ZZI  21 112
M  ZZM  22 1
M  ZZI  22 113
M  ZZM  23 1
M  ZZI  23 113
M  ZZM  24 1
M  ZZI  24 111
M  ZZM  25 9
M  ZZI  25 220
M  ZZM  26 9
M  ZZI  26 220
M  ZZM  27 10
M  ZZI  27 191
M  ZZM  28 10
M  ZZI  28 191
M  ZZM  29 10
M  ZZI  29 211
M  ZZM  30 10
M  ZZI  30 211
M  ZZM  31 7
M  ZZI  31 81
M  ZZM  32 7
M  ZZI  32 81
M  ZZM  33 7
M  ZZI  33 81
M  ZZM  34 7
M  ZZI  34 81
M  ZZM  35 5
M  ZZI  35 1
M  ZZM  36 5
M  ZZI  36 1
M  ZZM  37 5
M  ZZI  37 1
M  ZZM  38 5
M  ZZI  38 1
M  ZZM  39 5
M  ZZI  39 1
M  ZZM  40 5
M  ZZI  40 1
M  ZZM  41 5
M  ZZI  41 1
M  ZZM  42 5
M  ZZI  42 1
M  ZZM  43 5
M  ZZI  43 1
M  ZZM  44 5
M  ZZI  44 1
M  ZZM  45 5
M  ZZI  45 1
M  ZZM  46 5
M  ZZI  46 1
M  ZZM  47 5
M  ZZI  47 1
M  ZZM  48 5
M  ZZI  48 1
M  ZZM  49 5
M  ZZI  49 1
M  ZZM  50 5
M  ZZI  50 1
M  ZZM  51 5
M  ZZI  51 1
M  ZZM  52 5
M  ZZI  52 1
M  ZZM  53 28
M  ZZI  53 11
M  ZZM  54 28
M  ZZI  54 11
M  ZZM  55 28
M  ZZI  55 11
M  ZZM  56 28
M  ZZI  56 11
M  END
> <IX>
36

> <NAME>
51

> <Score>
-41.449479

> <Natom>
56

> <Nflex>
2

> <Hbond>
-7.802689

> <Hphob>
-6.523714

> <VwInt>
-44.604153

> <Dsolv>
19.574262

> <SolEl>
11.120099

> <Eintl>
6.744009

> <RecConf>
ND

> <projPath>
icm/

> <NAME_>
51

$$$$
22
  MOLSOFT 08042117143D

 55 58  0  0  1  0  0  0  0  0999 V2000
  -22.2600   13.2783  -29.6424 C   0  0  0  0  0  0  0  0  0  0  0  0
  -23.0038   14.4067  -29.9326 C   0  0  0  0  0  0  0  0  0  0  0  0
  -21.3487   13.3047  -28.6032 C   0  0  0  0  0  0  0  0  0  0  0  0
  -22.8366   15.5615  -29.1860 C   0  0  0  0  0  0  0  0  0  0  0  0
  -20.2698   14.4865  -26.7980 C   0  0  0  0  0  0  0  0  0  0  0  0
  -20.0735   15.6505  -26.0801 C   0  0  0  0  0  0  0  0  0  0  0  0
  -21.7260   16.7655  -27.3950 C   0  0  0  0  0  0  0  0  0  0  0  0
  -18.6421   22.6289  -26.1360 C   0  0  0  0  0  0  0  0  0  0  0  0
  -16.9665   21.4529  -27.3421 C   0  0  0  0  0  0  0  0  0  0  0  0
  -16.2997   22.9236  -25.7466 C   0  0  0  0  0  0  0  0  0  0  0  0
  -21.1800   14.4567  -27.8437 C   0  0  0  0  0  0  0  0  0  0  0  0
  -21.9221   15.6006  -28.1369 C   0  0  0  0  0  0  0  0  0  0  0  0
  -20.7736   16.8179  -26.3756 C   0  0  0  0  0  0  0  0  0  0  0  0
  -18.3152   21.7017  -27.1201 C   0  0  0  0  0  0  0  0  0  0  0  0
  -17.6148   23.2444  -25.4482 C   0  0  0  0  0  0  0  0  0  0  0  0
  -22.5861   15.3176  -20.6693 C   0  0  0  0  0  0  0  0  0  0  0  0
  -21.0117   14.6237  -22.3813 C   0  0  0  0  0  0  0  0  0  0  0  0
  -22.2487   14.2783  -19.9051 C   0  0  0  0  0  0  0  0  0  0  0  0
  -21.9270   15.4978  -21.9354 C   0  0  0  0  0  0  0  0  0  0  0  0
  -20.6577   13.4667  -21.5398 C   0  0  0  0  0  0  0  0  0  0  0  0
  -22.3125   16.6003  -22.8536 C   0  0  0  0  0  0  0  0  0  0  0  0
  -19.4386   19.5006  -27.3634 C   0  0  0  0  0  0  0  0  0  0  0  0
  -19.3671   20.9255  -27.8690 C   0  0  0  0  0  0  0  0  0  0  0  0
  -21.4007   18.3049  -24.3988 C   0  0  0  0  0  0  0  0  0  0  0  0
  -20.4643   18.0904  -25.5994 C   0  0  2  0  0  0  0  0  0  0  0  0
  -15.9476   22.0280  -26.6836 N   0  0  0  0  0  0  0  0  0  0  0  0
  -21.2987   13.3874  -20.3261 N   0  0  0  0  0  0  0  0  0  0  0  0
  -21.2365   17.2985  -23.3656 N   0  0  0  0  0  0  0  0  0  0  0  0
  -20.4333   19.2891  -26.4310 N   0  0  0  0  0  0  0  0  0  0  0  0
  -19.8527   12.6443  -21.9371 O   0  0  0  0  0  0  0  0  0  0  0  0
  -23.4866   16.8306  -23.0991 O   0  0  0  0  0  0  0  0  0  0  0  0
  -18.6400   18.6477  -27.7183 O   0  0  0  0  0  0  0  0  0  0  0  0
  -17.9386   24.1632  -24.4647 O   0  0  0  0  0  0  0  0  0  0  0  0
  -22.3814   12.3740  -30.2296 H   0  0  0  0  0  0  0  0  0  0  0  0
  -23.7129   14.3918  -30.7536 H   0  0  0  0  0  0  0  0  0  0  0  0
  -20.7572   12.4194  -28.3987 H   0  0  0  0  0  0  0  0  0  0  0  0
  -23.4217   16.4399  -29.4411 H   0  0  0  0  0  0  0  0  0  0  0  0
  -19.6895   13.6047  -26.5407 H   0  0  0  0  0  0  0  0  0  0  0  0
  -19.3441   15.6392  -25.2775 H   0  0  0  0  0  0  0  0  0  0  0  0
  -22.3009   17.6550  -27.6355 H   0  0  0  0  0  0  0  0  0  0  0  0
  -19.6730   22.8628  -25.8916 H   0  0  0  0  0  0  0  0  0  0  0  0
  -16.6653   20.7213  -28.0835 H   0  0  0  0  0  0  0  0  0  0  0  0
  -15.4761   23.3849  -25.2152 H   0  0  0  0  0  0  0  0  0  0  0  0
  -23.3437   16.0260  -20.3514 H   0  0  0  0  0  0  0  0  0  0  0  0
  -20.5276   14.6812  -23.3476 H   0  0  0  0  0  0  0  0  0  0  0  0
  -22.7022   14.0871  -18.9374 H   0  0  0  0  0  0  0  0  0  0  0  0
  -20.3450   21.4074  -27.7720 H   0  0  0  0  0  0  0  0  0  0  0  0
  -19.1394   20.9118  -28.9401 H   0  0  0  0  0  0  0  0  0  0  0  0
  -21.1815   19.2654  -23.9202 H   0  0  0  0  0  0  0  0  0  0  0  0
  -22.4468   18.3412  -24.7227 H   0  0  0  0  0  0  0  0  0  0  0  0
  -19.4415   17.9943  -25.2143 H   0  0  0  0  0  0  0  0  0  0  0  0
  -21.0607   12.5999  -19.7339 H   0  0  0  0  0  0  0  0  0  0  0  0
  -20.3030   17.1319  -22.9967 H   0  0  0  0  0  0  0  0  0  0  0  0
  -21.0871   20.0375  -26.2293 H   0  0  0  0  0  0  0  0  0  0  0  0
  -17.1156   24.4674  -24.0384 H   0  0  0  0  0  0  0  0  0  0  0  0
  1 34  1  0  0  0  0
  1  2  1  0  0  0  0
  1  3  2  0  0  0  0
  2 35  1  0  0  0  0
  2  4  2  0  0  0  0
  3 11  1  0  0  0  0
  3 36  1  0  0  0  0
  4 37  1  0  0  0  0
  4 12  1  0  0  0  0
  5 11  1  0  0  0  0
  5 38  1  0  0  0  0
  5  6  2  0  0  0  0
  6 39  1  0  0  0  0
  6 13  1  0  0  0  0
  7 13  2  0  0  0  0
  7 40  1  0  0  0  0
  7 12  1  0  0  0  0
  8 14  1  0  0  0  0
  8 41  1  0  0  0  0
  8 15  2  0  0  0  0
  9 26  1  0  0  0  0
  9 42  1  0  0  0  0
  9 14  2  0  0  0  0
 10 15  1  0  0  0  0
 10 43  1  0  0  0  0
 10 26  2  0  0  0  0
 11 12  2  0  0  0  0
 25 13  1  0  0  0  0
 14 23  1  0  0  0  0
 15 33  1  0  0  0  0
 16 19  1  0  0  0  0
 16 44  1  0  0  0  0
 16 18  2  0  0  0  0
 17 20  1  0  0  0  0
 17 45  1  0  0  0  0
 17 19  2  0  0  0  0
 18 46  1  0  0  0  0
 18 27  1  0  0  0  0
 19 21  1  0  0  0  0
 20 27  1  0  0  0  0
 20 30  2  0  0  0  0
 21 28  1  0  0  0  0
 21 31  2  0  0  0  0
 22 29  1  0  0  0  0
 22 32  2  0  0  0  0
 22 23  1  0  0  0  0
 23 47  1  0  0  0  0
 23 48  1  0  0  0  0
 25 24  1  0  0  0  0
 24 49  1  0  0  0  0
 24 50  1  0  0  0  0
 24 28  1  0  0  0  0
 25 51  1  0  0  0  0
 25 29  1  0  0  0  0
 27 52  1  0  0  0  0
 28 53  1  0  0  0  0
 29 54  1  0  0  0  0
 33 55  1  0  0  0  0
M  ZZC   1 c1
M  ZZC   2 c2
M  ZZC   3 c3
M  ZZC   4 c4
M  ZZC   5 c5
M  ZZC   6 c6
M  ZZC   7 c7
M  ZZC   8 c8
M  ZZC   9 c9
M  ZZC  10 c10
M  ZZC  11 c11
M  ZZC  12 c12
M  ZZC  13 c13
M  ZZC  14 c14
M  ZZC  15 c15
M  ZZC  16 c16
M  ZZC  17 c17
M  ZZC  18 c18
M  ZZC  19 c19
M  ZZC  20 c20
M  ZZC  21 c21
M  ZZC  22 c22
M  ZZC  23 c23
M  ZZC  24 c24
M  ZZC  25 c25
M  ZZC  26 n1
M  ZZC  27 n2
M  ZZC  28 n3
M  ZZC  29 n4
M  ZZC  30 o1
M  ZZC  31 o2
M  ZZC  32 o3
M  ZZC  33 o4
M  ZZC  34 h1
M  ZZC  35 h2
M  ZZC  36 h3
M  ZZC  37 h4
M  ZZC  38 h5
M  ZZC  39 h6
M  ZZC  40 h7
M  ZZC  41 h8
M  ZZC  42 h9
M  ZZC  43 h10
M  ZZC  44 h11
M  ZZC  45 h12
M  ZZC  46 h13
M  ZZC  47 h14
M  ZZC  48 h15
M  ZZC  49 h16
M  ZZC  50 h17
M  ZZC  51 h18
M  ZZC  52 h19
M  ZZC  53 h20
M  ZZC  54 h21
M  ZZC  55 h22
M  ZZM   1 37
M  ZZI   1 125
M  ZZM   2 37
M  ZZI   2 125
M  ZZM   3 37
M  ZZI   3 125
M  ZZM   4 37
M  ZZI   4 125
M  ZZM   5 37
M  ZZI   5 125
M  ZZM   6 37
M  ZZI   6 125
M  ZZM   7 37
M  ZZI   7 125
M  ZZM   8 37
M  ZZI   8 125
M  ZZM   9 37
M  ZZI   9 125
M  ZZM  10 37
M  ZZI  10 125
M  ZZM  11 37
M  ZZI  11 124
M  ZZM  12 37
M  ZZI  12 124
M  ZZM  13 37
M  ZZI  13 124
M  ZZM  14 37
M  ZZI  14 124
M  ZZM  15 37
M  ZZI  15 124
M  ZZM  16 2
M  ZZI  16 120
M  ZZM  17 2
M  ZZI  17 120
M  ZZM  18 2
M  ZZI  18 120
M  ZZM  19 2
M  ZZI  19 120
M  ZZM  20 3
M  ZZI  20 121
M  ZZM  21 3
M  ZZI  21 121
M  ZZM  22 3
M  ZZI  22 121
M  ZZM  23 1
M  ZZI  23 112
M  ZZM  24 1
M  ZZI  24 112
M  ZZM  25 1
M  ZZI  25 113
M  ZZM  26 38
M  ZZI  26 223
M  ZZM  27 10
M  ZZI  27 191
M  ZZM  28 10
M  ZZI  28 211
M  ZZM  29 10
M  ZZI  29 211
M  ZZM  30 7
M  ZZI  30 81
M  ZZM  31 7
M  ZZI  31 81
M  ZZM  32 7
M  ZZI  32 81
M  ZZM  33 6
M  ZZI  33 62
M  ZZM  34 5
M  ZZI  34 1
M  ZZM  35 5
M  ZZI  35 1
M  ZZM  36 5
M  ZZI  36 1
M  ZZM  37 5
M  ZZI  37 1
M  ZZM  38 5
M  ZZI  38 1
M  ZZM  39 5
M  ZZI  39 1
M  ZZM  40 5
M  ZZI  40 1
M  ZZM  41 5
M  ZZI  41 1
M  ZZM  42 5
M  ZZI  42 1
M  ZZM  43 5
M  ZZI  43 1
M  ZZM  44 5
M  ZZI  44 1
M  ZZM  45 5
M  ZZI  45 1
M  ZZM  46 5
M  ZZI  46 1
M  ZZM  47 5
M  ZZI  47 1
M  ZZM  48 5
M  ZZI  48 1
M  ZZM  49 5
M  ZZI  49 1
M  ZZM  50 5
M  ZZI  50 1
M  ZZM  51 5
M  ZZI  51 1
M  ZZM  52 28
M  ZZI  52 11
M  ZZM  53 28
M  ZZI  53 11
M  ZZM  54 28
M  ZZI  54 11
M  ZZM  55 29
M  ZZI  55 27
M  END
> <IX>
37

> <NAME>
22

> <Score>
-30.557678

> <Natom>
55

> <Nflex>
6

> <Hbond>
-6.87384

> <Hphob>
-6.641313

> <VwInt>
-39.349984

> <Dsolv>
20.799177

> <SolEl>
7.272547

> <Eintl>
11.055896

> <RecConf>
ND

> <projPath>
icm/

> <NAME_>
22

$$$$
10
  MOLSOFT 08042117153D

 55 58  0  0  1  0  0  0  0  0999 V2000
  -27.9995   19.6630  -33.2742 C   0  0  0  0  0  0  0  0  0  0  0  0
  -27.6554   20.8023  -32.5749 C   0  0  0  0  0  0  0  0  0  0  0  0
  -27.1541   18.5743  -33.3074 C   0  0  0  0  0  0  0  0  0  0  0  0
  -26.4423   20.8590  -31.9149 C   0  0  0  0  0  0  0  0  0  0  0  0
  -25.0488   17.5580  -32.7298 C   0  0  0  0  0  0  0  0  0  0  0  0
  -23.8009   17.6453  -32.1488 C   0  0  0  0  0  0  0  0  0  0  0  0
  -24.3329   19.8357  -31.3422 C   0  0  0  0  0  0  0  0  0  0  0  0
  -25.9294   18.6263  -32.6624 C   0  0  0  0  0  0  0  0  0  0  0  0
  -25.5694   19.7769  -31.9666 C   0  0  0  0  0  0  0  0  0  0  0  0
  -23.4253   18.7831  -31.4347 C   0  0  0  0  0  0  0  0  0  0  0  0
  -19.9273   14.9545  -28.9743 C   0  0  0  0  0  0  0  0  0  0  0  0
  -22.0827   14.7417  -30.0740 C   0  0  0  0  0  0  0  0  0  0  0  0
  -16.8295   21.8263  -27.0761 C   0  0  0  0  0  0  0  0  0  0  0  0
  -19.7472   13.6342  -29.0299 C   0  0  0  0  0  0  0  0  0  0  0  0
  -15.8297   22.9627  -25.4329 C   0  0  0  0  0  0  0  0  0  0  0  0
  -21.1392   15.5132  -29.5073 C   0  0  0  0  0  0  0  0  0  0  0  0
  -18.0684   22.2408  -26.7721 C   0  0  0  0  0  0  0  0  0  0  0  0
  -21.8552   13.2808  -30.1803 C   0  0  0  0  0  0  0  0  0  0  0  0
  -18.2131   23.0948  -25.5621 C   0  0  0  0  0  0  0  0  0  0  0  0
  -19.2308   21.8619  -27.5421 C   0  0  0  0  0  0  0  0  0  0  0  0
  -19.1902   21.6896  -28.8727 C   0  0  0  0  0  0  0  0  0  0  0  0
  -21.4418   16.9646  -29.3885 C   0  0  0  0  0  0  0  0  0  0  0  0
  -20.4243   21.3446  -29.6043 C   0  0  0  0  0  0  0  0  0  0  0  0
  -21.2023   19.9529  -31.5092 C   0  0  0  0  0  0  0  0  0  0  0  0
  -22.0782   18.9244  -30.7605 C   0  0  2  0  0  0  0  0  0  0  0  0
  -15.6751   22.1595  -26.4327 N   0  0  0  0  0  0  0  0  0  0  0  0
  -20.6905   12.8213  -29.6069 N   0  0  0  0  0  0  0  0  0  0  0  0
  -17.0277   23.4414  -24.9849 N   0  0  0  0  0  0  0  0  0  0  0  0
  -21.4222   17.6289  -30.5998 N   0  0  0  0  0  0  0  0  0  0  0  0
  -20.1566   20.5169  -30.6750 N   0  0  0  0  0  0  0  0  0  0  0  0
  -22.6526   12.5619  -30.7613 O   0  0  0  0  0  0  0  0  0  0  0  0
  -19.2970   23.4436  -25.1205 O   0  0  0  0  0  0  0  0  0  0  0  0
  -21.7019   17.4631  -28.3034 O   0  0  0  0  0  0  0  0  0  0  0  0
  -21.5168   21.7633  -29.2499 O   0  0  0  0  0  0  0  0  0  0  0  0
  -28.9292   19.6224  -33.8185 H   0  0  0  0  0  0  0  0  0  0  0  0
  -28.3296   21.6527  -32.5541 H   0  0  0  0  0  0  0  0  0  0  0  0
  -27.4463   17.6969  -33.8701 H   0  0  0  0  0  0  0  0  0  0  0  0
  -26.1772   21.7632  -31.3747 H   0  0  0  0  0  0  0  0  0  0  0  0
  -25.3184   16.6497  -33.2575 H   0  0  0  0  0  0  0  0  0  0  0  0
  -23.1311   16.8010  -32.2674 H   0  0  0  0  0  0  0  0  0  0  0  0
  -24.0590   20.7287  -30.7852 H   0  0  0  0  0  0  0  0  0  0  0  0
  -19.1853   15.6071  -28.5271 H   0  0  0  0  0  0  0  0  0  0  0  0
  -23.0226   15.1207  -30.4576 H   0  0  0  0  0  0  0  0  0  0  0  0
  -16.6733   21.1653  -27.9207 H   0  0  0  0  0  0  0  0  0  0  0  0
  -18.8578   13.1551  -28.6346 H   0  0  0  0  0  0  0  0  0  0  0  0
  -14.9704   23.3071  -24.8450 H   0  0  0  0  0  0  0  0  0  0  0  0
  -20.1599   21.7444  -26.9925 H   0  0  0  0  0  0  0  0  0  0  0  0
  -18.2807   21.8026  -29.4499 H   0  0  0  0  0  0  0  0  0  0  0  0
  -20.7174   19.5009  -32.3818 H   0  0  0  0  0  0  0  0  0  0  0  0
  -21.7950   20.8001  -31.8700 H   0  0  0  0  0  0  0  0  0  0  0  0
  -22.2853   19.2940  -29.7509 H   0  0  0  0  0  0  0  0  0  0  0  0
  -20.5309   11.8227  -29.6455 H   0  0  0  0  0  0  0  0  0  0  0  0
  -17.0531   24.0365  -24.1645 H   0  0  0  0  0  0  0  0  0  0  0  0
  -21.1018   17.1354  -31.4288 H   0  0  0  0  0  0  0  0  0  0  0  0
  -19.1959   20.2873  -30.8920 H   0  0  0  0  0  0  0  0  0  0  0  0
  1 35  1  0  0  0  0
  1  2  1  0  0  0  0
  1  3  2  0  0  0  0
  2 36  1  0  0  0  0
  2  4  2  0  0  0  0
  3  8  1  0  0  0  0
  3 37  1  0  0  0  0
  4 38  1  0  0  0  0
  4  9  1  0  0  0  0
  5  6  2  0  0  0  0
  5 39  1  0  0  0  0
  5  8  1  0  0  0  0
  6 10  1  0  0  0  0
  6 40  1  0  0  0  0
  7  9  1  0  0  0  0
  7 41  1  0  0  0  0
  7 10  2  0  0  0  0
  8  9  2  0  0  0  0
 25 10  1  0  0  0  0
 11 16  1  0  0  0  0
 11 42  1  0  0  0  0
 11 14  2  0  0  0  0
 12 18  1  0  0  0  0
 12 43  1  0  0  0  0
 12 16  2  0  0  0  0
 13 17  2  0  0  0  0
 13 44  1  0  0  0  0
 13 26  1  0  0  0  0
 14 45  1  0  0  0  0
 14 27  1  0  0  0  0
 15 26  2  0  0  0  0
 15 46  1  0  0  0  0
 15 28  1  0  0  0  0
 16 22  1  0  0  0  0
 17 20  1  0  0  0  0
 17 19  1  0  0  0  0
 18 27  1  0  0  0  0
 18 31  2  0  0  0  0
 19 28  1  0  0  0  0
 19 32  2  0  0  0  0
 20 21  2  0  0  0  0
 20 47  1  0  0  0  0
 21 23  1  0  0  0  0
 21 48  1  0  0  0  0
 22 29  1  0  0  0  0
 22 33  2  0  0  0  0
 23 30  1  0  0  0  0
 23 34  2  0  0  0  0
 25 24  1  0  0  0  0
 24 49  1  0  0  0  0
 24 50  1  0  0  0  0
 24 30  1  0  0  0  0
 25 51  1  0  0  0  0
 25 29  1  0  0  0  0
 27 52  1  0  0  0  0
 28 53  1  0  0  0  0
 29 54  1  0  0  0  0
 30 55  1  0  0  0  0
M  ZZC   1 c1
M  ZZC   2 c2
M  ZZC   3 c3
M  ZZC   4 c4
M  ZZC   5 c5
M  ZZC   6 c6
M  ZZC   7 c7
M  ZZC   8 c8
M  ZZC   9 c9
M  ZZC  10 c10
M  ZZC  11 c11
M  ZZC  12 c12
M  ZZC  13 c13
M  ZZC  14 c14
M  ZZC  15 c15
M  ZZC  16 c16
M  ZZC  17 c17
M  ZZC  18 c18
M  ZZC  19 c19
M  ZZC  20 c20
M  ZZC  21 c21
M  ZZC  22 c22
M  ZZC  23 c23
M  ZZC  24 c24
M  ZZC  25 c25
M  ZZC  26 n1
M  ZZC  27 n2
M  ZZC  28 n3
M  ZZC  29 n4
M  ZZC  30 n5
M  ZZC  31 o1
M  ZZC  32 o2
M  ZZC  33 o3
M  ZZC  34 o4
M  ZZC  35 h1
M  ZZC  36 h2
M  ZZC  37 h3
M  ZZC  38 h4
M  ZZC  39 h5
M  ZZC  40 h6
M  ZZC  41 h7
M  ZZC  42 h8
M  ZZC  43 h9
M  ZZC  44 h10
M  ZZC  45 h11
M  ZZC  46 h12
M  ZZC  47 h13
M  ZZC  48 h14
M  ZZC  49 h15
M  ZZC  50 h16
M  ZZC  51 h17
M  ZZC  52 h18
M  ZZC  53 h19
M  ZZC  54 h20
M  ZZC  55 h21
M  ZZM   1 37
M  ZZI   1 125
M  ZZM   2 37
M  ZZI   2 125
M  ZZM   3 37
M  ZZI   3 125
M  ZZM   4 37
M  ZZI   4 125
M  ZZM   5 37
M  ZZI   5 125
M  ZZM   6 37
M  ZZI   6 125
M  ZZM   7 37
M  ZZI   7 125
M  ZZM   8 37
M  ZZI   8 124
M  ZZM   9 37
M  ZZI   9 124
M  ZZM  10 37
M  ZZI  10 124
M  ZZM  11 2
M  ZZI  11 120
M  ZZM  12 2
M  ZZI  12 120
M  ZZM  13 2
M  ZZI  13 120
M  ZZM  14 2
M  ZZI  14 120
M  ZZM  15 3
M  ZZI  15 121
M  ZZM  16 2
M  ZZI  16 120
M  ZZM  17 2
M  ZZI  17 120
M  ZZM  18 3
M  ZZI  18 121
M  ZZM  19 3
M  ZZI  19 121
M  ZZM  20 2
M  ZZI  20 120
M  ZZM  21 2
M  ZZI  21 120
M  ZZM  22 3
M  ZZI  22 121
M  ZZM  23 3
M  ZZI  23 121
M  ZZM  24 1
M  ZZI  24 112
M  ZZM  25 1
M  ZZI  25 113
M  ZZM  26 9
M  ZZI  26 220
M  ZZM  27 10
M  ZZI  27 191
M  ZZM  28 10
M  ZZI  28 191
M  ZZM  29 10
M  ZZI  29 211
M  ZZM  30 10
M  ZZI  30 211
M  ZZM  31 7
M  ZZI  31 81
M  ZZM  32 7
M  ZZI  32 81
M  ZZM  33 7
M  ZZI  33 81
M  ZZM  34 7
M  ZZI  34 81
M  ZZM  35 5
M  ZZI  35 1
M  ZZM  36 5
M  ZZI  36 1
M  ZZM  37 5
M  ZZI  37 1
M  ZZM  38 5
M  ZZI  38 1
M  ZZM  39 5
M  ZZI  39 1
M  ZZM  40 5
M  ZZI  40 1
M  ZZM  41 5
M  ZZI  41 1
M  ZZM  42 5
M  ZZI  42 1
M  ZZM  43 5
M  ZZI  43 1
M  ZZM  44 5
M  ZZI  44 1
M  ZZM  45 5
M  ZZI  45 1
M  ZZM  46 5
M  ZZI  46 1
M  ZZM  47 5
M  ZZI  47 1
M  ZZM  48 5
M  ZZI  48 1
M  ZZM  49 5
M  ZZI  49 1
M  ZZM  50 5
M  ZZI  50 1
M  ZZM  51 5
M  ZZI  51 1
M  ZZM  52 28
M  ZZI  52 11
M  ZZM  53 28
M  ZZI  53 11
M  ZZM  54 28
M  ZZI  54 11
M  ZZM  55 28
M  ZZI  55 11
M  END
> <IX>
38

> <NAME>
10

> <Score>
-37.5466

> <Natom>
55

> <Nflex>
4

> <Hbond>
-8.4587

> <Hphob>
-6.223259

> <VwInt>
-41.957437

> <Dsolv>
19.701538

> <SolEl>
10.065933

> <Eintl>
10.268771

> <RecConf>
ND

> <projPath>
icm/

> <NAME_>
10

$$$$
41
  MOLSOFT 08042117173D

 52 55  0  0  1  0  0  0  0  0999 V2000
  -21.2432   12.9829  -29.4867 C   0  0  0  0  0  0  0  0  0  0  0  0
  -20.0221   13.6210  -29.3815 C   0  0  0  0  0  0  0  0  0  0  0  0
  -22.3310   13.4704  -28.7895 C   0  0  0  0  0  0  0  0  0  0  0  0
  -19.8870   14.7425  -28.5857 C   0  0  0  0  0  0  0  0  0  0  0  0
  -22.1981   14.5916  -27.9893 C   0  0  0  0  0  0  0  0  0  0  0  0
  -17.1008   21.5656  -26.1217 C   0  0  0  0  0  0  0  0  0  0  0  0
  -20.7232   21.2575  -25.1364 C   0  0  0  0  0  0  0  0  0  0  0  0
  -19.8249   23.3062  -24.5672 C   0  0  0  0  0  0  0  0  0  0  0  0
  -16.4829   22.7449  -25.7809 C   0  0  0  0  0  0  0  0  0  0  0  0
  -18.4414   21.6309  -25.6569 C   0  0  0  0  0  0  0  0  0  0  0  0
  -19.5395   20.7702  -25.6632 C   0  0  0  0  0  0  0  0  0  0  0  0
  -20.9733   15.2489  -27.8707 C   0  0  0  0  0  0  0  0  0  0  0  0
  -18.6101   22.8828  -25.0827 C   0  0  0  0  0  0  0  0  0  0  0  0
  -21.9209   15.3362  -20.5070 C   0  0  0  0  0  0  0  0  0  0  0  0
  -21.5198   14.0940  -20.8070 C   0  0  0  0  0  0  0  0  0  0  0  0
  -21.2702   16.5302  -21.0884 C   0  0  0  0  0  0  0  0  0  0  0  0
  -20.4874   13.8383  -21.8319 C   0  0  0  0  0  0  0  0  0  0  0  0
  -19.4135   19.3794  -26.1531 C   0  0  0  0  0  0  0  0  0  0  0  0
  -20.4073   15.2265  -24.8310 C   0  0  0  0  0  0  0  0  0  0  0  0
  -19.3539   14.9296  -23.7710 C   0  0  0  0  0  0  0  0  0  0  0  0
  -20.2947   17.6749  -27.7338 C   0  0  0  0  0  0  0  0  0  0  0  0
  -20.8337   16.4526  -26.9544 C   0  0  2  0  0  0  0  0  0  0  0  0
  -20.8932   22.4875  -24.6278 N   0  0  0  0  0  0  0  0  0  0  0  0
  -17.3981   23.5240  -25.1343 N   0  0  0  0  0  0  0  0  0  0  0  0
  -20.2870   16.2727  -22.0101 N   0  0  0  0  0  0  0  0  0  0  0  0
  -20.0043   14.9715  -22.4672 N   0  0  0  0  0  0  0  0  0  0  0  0
  -20.3977   18.9461  -27.0224 N   0  0  0  0  0  0  0  0  0  0  0  0
  -19.9970   16.1177  -25.8067 N   0  0  0  0  0  0  0  0  0  0  0  0
  -21.5826   17.6551  -20.7315 O   0  0  0  0  0  0  0  0  0  0  0  0
  -20.1473   12.6941  -22.0947 O   0  0  0  0  0  0  0  0  0  0  0  0
  -18.4614   18.7085  -25.7836 O   0  0  0  0  0  0  0  0  0  0  0  0
  -21.5133   14.7044  -24.8171 O   0  0  0  0  0  0  0  0  0  0  0  0
  -21.3481   12.0999  -30.1077 H   0  0  0  0  0  0  0  0  0  0  0  0
  -19.1606   13.2428  -29.9185 H   0  0  0  0  0  0  0  0  0  0  0  0
  -23.2887   12.9660  -28.8615 H   0  0  0  0  0  0  0  0  0  0  0  0
  -18.9124   15.2144  -28.5228 H   0  0  0  0  0  0  0  0  0  0  0  0
  -23.0650   14.9428  -27.4375 H   0  0  0  0  0  0  0  0  0  0  0  0
  -16.6360   20.7387  -26.6403 H   0  0  0  0  0  0  0  0  0  0  0  0
  -21.6122   20.6351  -25.0952 H   0  0  0  0  0  0  0  0  0  0  0  0
  -19.9759   24.2853  -24.1228 H   0  0  0  0  0  0  0  0  0  0  0  0
  -15.4721   23.0922  -25.9307 H   0  0  0  0  0  0  0  0  0  0  0  0
  -22.7034   15.5138  -19.7789 H   0  0  0  0  0  0  0  0  0  0  0  0
  -21.9731   13.2249  -20.3448 H   0  0  0  0  0  0  0  0  0  0  0  0
  -18.9593   13.9271  -23.9583 H   0  0  0  0  0  0  0  0  0  0  0  0
  -18.5304   15.6488  -23.7877 H   0  0  0  0  0  0  0  0  0  0  0  0
  -19.2430   17.5344  -28.0095 H   0  0  0  0  0  0  0  0  0  0  0  0
  -20.8544   17.8054  -28.6661 H   0  0  0  0  0  0  0  0  0  0  0  0
  -21.8212   16.7095  -26.5522 H   0  0  0  0  0  0  0  0  0  0  0  0
  -17.1981   24.4381  -24.7445 H   0  0  0  0  0  0  0  0  0  0  0  0
  -19.7255   17.0418  -22.3684 H   0  0  0  0  0  0  0  0  0  0  0  0
  -21.1539   19.5720  -27.2796 H   0  0  0  0  0  0  0  0  0  0  0  0
  -19.1318   16.6359  -25.6896 H   0  0  0  0  0  0  0  0  0  0  0  0
  1 33  1  0  0  0  0
  1  2  1  0  0  0  0
  1  3  2  0  0  0  0
  2 34  1  0  0  0  0
  2  4  2  0  0  0  0
  3  5  1  0  0  0  0
  3 35  1  0  0  0  0
  4 36  1  0  0  0  0
  4 12  1  0  0  0  0
  5 12  2  0  0  0  0
  5 37  1  0  0  0  0
  6  9  2  0  0  0  0
  6 38  1  0  0  0  0
  6 10  1  0  0  0  0
  7 23  2  0  0  0  0
  7 39  1  0  0  0  0
  7 11  1  0  0  0  0
  8 13  2  0  0  0  0
  8 40  1  0  0  0  0
  8 23  1  0  0  0  0
  9 24  1  0  0  0  0
  9 41  1  0  0  0  0
 10 11  2  0  0  0  0
 10 13  1  0  0  0  0
 11 18  1  0  0  0  0
 22 12  1  0  0  0  0
 13 24  1  0  0  0  0
 14 15  2  0  0  0  0
 14 42  1  0  0  0  0
 14 16  1  0  0  0  0
 15 17  1  0  0  0  0
 15 43  1  0  0  0  0
 16 29  2  0  0  0  0
 16 25  1  0  0  0  0
 17 26  1  0  0  0  0
 17 30  2  0  0  0  0
 18 27  1  0  0  0  0
 18 31  2  0  0  0  0
 19 28  1  0  0  0  0
 19 32  2  0  0  0  0
 19 20  1  0  0  0  0
 20 44  1  0  0  0  0
 20 45  1  0  0  0  0
 20 26  1  0  0  0  0
 22 21  1  0  0  0  0
 21 46  1  0  0  0  0
 21 47  1  0  0  0  0
 21 27  1  0  0  0  0
 22 48  1  0  0  0  0
 22 28  1  0  0  0  0
 24 49  1  0  0  0  0
 25 50  1  0  0  0  0
 25 26  1  0  0  0  0
 27 51  1  0  0  0  0
 28 52  1  0  0  0  0
M  ZZC   1 c1
M  ZZC   2 c2
M  ZZC   3 c3
M  ZZC   4 c4
M  ZZC   5 c5
M  ZZC   6 c6
M  ZZC   7 c7
M  ZZC   8 c8
M  ZZC   9 c9
M  ZZC  10 c10
M  ZZC  11 c11
M  ZZC  12 c12
M  ZZC  13 c13
M  ZZC  14 c14
M  ZZC  15 c15
M  ZZC  16 c16
M  ZZC  17 c17
M  ZZC  18 c18
M  ZZC  19 c19
M  ZZC  20 c20
M  ZZC  21 c21
M  ZZC  22 c22
M  ZZC  23 n1
M  ZZC  24 n2
M  ZZC  25 n3
M  ZZC  26 n4
M  ZZC  27 n5
M  ZZC  28 n6
M  ZZC  29 o1
M  ZZC  30 o2
M  ZZC  31 o3
M  ZZC  32 o4
M  ZZC  33 h1
M  ZZC  34 h2
M  ZZC  35 h3
M  ZZC  36 h4
M  ZZC  37 h5
M  ZZC  38 h6
M  ZZC  39 h7
M  ZZC  40 h8
M  ZZC  41 h9
M  ZZC  42 h10
M  ZZC  43 h11
M  ZZC  44 h12
M  ZZC  45 h13
M  ZZC  46 h14
M  ZZC  47 h15
M  ZZC  48 h16
M  ZZC  49 h17
M  ZZC  50 h18
M  ZZC  51 h19
M  ZZC  52 h20
M  ZZM   1 37
M  ZZI   1 125
M  ZZM   2 37
M  ZZI   2 125
M  ZZM   3 37
M  ZZI   3 125
M  ZZM   4 37
M  ZZI   4 125
M  ZZM   5 37
M  ZZI   5 125
M  ZZM   6 64
M  ZZI   6 105
M  ZZM   7 37
M  ZZI   7 125
M  ZZM   8 37
M  ZZI   8 125
M  ZZM   9 63
M  ZZI   9 104
M  ZZM  10 64
M  ZZI  10 105
M  ZZM  11 37
M  ZZI  11 124
M  ZZM  12 37
M  ZZI  12 124
M  ZZM  13 63
M  ZZI  13 104
M  ZZM  14 2
M  ZZI  14 120
M  ZZM  15 2
M  ZZI  15 120
M  ZZM  16 3
M  ZZI  16 121
M  ZZM  17 3
M  ZZI  17 121
M  ZZM  18 3
M  ZZI  18 121
M  ZZM  19 3
M  ZZI  19 121
M  ZZM  20 1
M  ZZI  20 112
M  ZZM  21 1
M  ZZI  21 112
M  ZZM  22 1
M  ZZI  22 113
M  ZZM  23 38
M  ZZI  23 223
M  ZZM  24 39
M  ZZI  24 215
M  ZZM  25 10
M  ZZI  25 191
M  ZZM  26 10
M  ZZI  26 192
M  ZZM  27 10
M  ZZI  27 211
M  ZZM  28 10
M  ZZI  28 211
M  ZZM  29 7
M  ZZI  29 81
M  ZZM  30 7
M  ZZI  30 81
M  ZZM  31 7
M  ZZI  31 81
M  ZZM  32 7
M  ZZI  32 81
M  ZZM  33 5
M  ZZI  33 1
M  ZZM  34 5
M  ZZI  34 1
M  ZZM  35 5
M  ZZI  35 1
M  ZZM  36 5
M  ZZI  36 1
M  ZZM  37 5
M  ZZI  37 1
M  ZZM  38 5
M  ZZI  38 1
M  ZZM  39 5
M  ZZI  39 1
M  ZZM  40 5
M  ZZI  40 1
M  ZZM  41 5
M  ZZI  41 1
M  ZZM  42 5
M  ZZI  42 1
M  ZZM  43 5
M  ZZI  43 1
M  ZZM  44 5
M  ZZI  44 1
M  ZZM  45 5
M  ZZI  45 1
M  ZZM  46 5
M  ZZI  46 1
M  ZZM  47 5
M  ZZI  47 1
M  ZZM  48 5
M  ZZI  48 1
M  ZZM  49 23
M  ZZI  49 10
M  ZZM  50 28
M  ZZI  50 11
M  ZZM  51 28
M  ZZI  51 11
M  ZZM  52 28
M  ZZI  52 11
M  END
> <IX>
39

> <NAME>
41

> <Score>
-39.281676

> <Natom>
52

> <Nflex>
6

> <Hbond>
-6.361785

> <Hphob>
-6.097807

> <VwInt>
-40.956447

> <Dsolv>
15.462442

> <SolEl>
4.387681

> <Eintl>
6.271526

> <RecConf>
ND

> <projPath>
icm/

> <NAME_>
41

$$$$
11
  MOLSOFT 08042117193D

 59 62  0  0  1  0  0  0  0  0999 V2000
  -21.1710   14.3889  -20.9000 C   0  0  0  0  0  0  0  0  0  0  0  0
  -19.9254   13.8800  -21.2433 C   0  0  0  0  0  0  0  0  0  0  0  0
  -21.9340   15.0732  -21.8327 C   0  0  0  0  0  0  0  0  0  0  0  0
  -19.4295   14.0344  -22.5280 C   0  0  0  0  0  0  0  0  0  0  0  0
  -21.4318   15.2163  -23.1146 C   0  0  0  0  0  0  0  0  0  0  0  0
  -20.2142   14.6922  -23.4593 C   0  0  0  0  0  0  0  0  0  0  0  0
  -23.0555   16.8988  -31.1239 C   0  0  0  0  0  0  0  0  0  0  0  0
  -23.4704   15.6377  -31.2854 C   0  0  0  0  0  0  0  0  0  0  0  0
  -21.8414   17.1840  -30.4235 C   0  0  0  0  0  0  0  0  0  0  0  0
  -19.5585   22.4345  -24.9704 C   0  0  0  0  0  0  0  0  0  0  0  0
  -21.1145   16.1834  -29.9234 C   0  0  0  0  0  0  0  0  0  0  0  0
  -18.5667   21.7806  -25.5955 C   0  0  0  0  0  0  0  0  0  0  0  0
  -22.6605   14.5068  -30.7511 C   0  0  0  0  0  0  0  0  0  0  0  0
  -17.2505   22.4752  -25.6544 C   0  0  0  0  0  0  0  0  0  0  0  0
  -18.3058   24.1715  -24.2930 C   0  0  0  0  0  0  0  0  0  0  0  0
  -18.7675   20.4565  -26.1527 C   0  0  0  0  0  0  0  0  0  0  0  0
  -19.3534   19.4919  -25.4213 C   0  0  0  0  0  0  0  0  0  0  0  0
  -19.7199   18.1595  -25.9645 C   0  0  0  0  0  0  0  0  0  0  0  0
  -21.0819   13.6662  -28.0134 C   0  0  0  0  0  0  0  0  0  0  0  0
  -22.0835   15.8745  -24.2853 C   0  0  0  0  0  0  0  0  0  0  0  0
  -19.9260   14.9073  -24.9123 C   0  0  2  0  0  0  0  0  0  0  0  0
  -20.8894   16.0651  -25.2308 C   0  0  2  0  0  0  0  0  0  0  0  0
  -18.1018   25.4541  -23.5315 C   0  0  0  0  0  0  0  0  0  0  0  0
  -20.6714   13.8197  -29.4676 C   0  0  0  0  0  0  0  0  0  0  0  0
  -20.2358   13.6282  -25.6948 C   0  0  0  0  0  0  0  0  0  0  0  0
  -19.4787   23.6306  -24.3196 N   0  0  0  0  0  0  0  0  0  0  0  0
  -17.2088   23.6421  -24.9342 N   0  0  0  0  0  0  0  0  0  0  0  0
  -21.4970   14.8657  -30.0736 N   0  0  0  0  0  0  0  0  0  0  0  0
  -20.2545   17.3574  -24.9768 N   0  0  0  0  0  0  0  0  0  0  0  0
  -20.0294   13.7677  -27.1222 N   0  0  0  0  0  0  0  0  0  0  0  0
  -23.0376   13.3587  -30.9423 O   0  0  0  0  0  0  0  0  0  0  0  0
  -16.2876   22.0287  -26.2632 O   0  0  0  0  0  0  0  0  0  0  0  0
  -19.5851   17.8610  -27.1419 O   0  0  0  0  0  0  0  0  0  0  0  0
  -22.2443   13.4865  -27.6765 O   0  0  0  0  0  0  0  0  0  0  0  0
  -21.5494   14.2497  -19.8925 H   0  0  0  0  0  0  0  0  0  0  0  0
  -19.3378   13.3537  -20.4994 H   0  0  0  0  0  0  0  0  0  0  0  0
  -22.9029   15.4787  -21.5610 H   0  0  0  0  0  0  0  0  0  0  0  0
  -18.4553   13.6393  -22.7971 H   0  0  0  0  0  0  0  0  0  0  0  0
  -23.6333   17.7290  -31.5155 H   0  0  0  0  0  0  0  0  0  0  0  0
  -24.3897   15.4075  -31.8079 H   0  0  0  0  0  0  0  0  0  0  0  0
  -21.5303   18.2158  -30.3059 H   0  0  0  0  0  0  0  0  0  0  0  0
  -20.5442   21.9844  -24.9139 H   0  0  0  0  0  0  0  0  0  0  0  0
  -20.1918   16.3790  -29.3838 H   0  0  0  0  0  0  0  0  0  0  0  0
  -18.4497   20.2846  -27.1774 H   0  0  0  0  0  0  0  0  0  0  0  0
  -19.6434   19.6818  -24.3935 H   0  0  0  0  0  0  0  0  0  0  0  0
  -22.8279   15.1993  -24.7186 H   0  0  0  0  0  0  0  0  0  0  0  0
  -22.5637   16.8203  -24.0113 H   0  0  0  0  0  0  0  0  0  0  0  0
  -18.8878   15.2035  -25.0608 H   0  0  0  0  0  0  0  0  0  0  0  0
  -21.2147   16.0697  -26.2765 H   0  0  0  0  0  0  0  0  0  0  0  0
  -18.6144   26.2663  -24.0556 H   0  0  0  0  0  0  0  0  0  0  0  0
  -17.0425   25.6982  -23.4243 H   0  0  0  0  0  0  0  0  0  0  0  0
  -18.5428   25.3565  -22.5353 H   0  0  0  0  0  0  0  0  0  0  0  0
  -19.6110   14.0793  -29.5676 H   0  0  0  0  0  0  0  0  0  0  0  0
  -20.8348   12.8592  -29.9676 H   0  0  0  0  0  0  0  0  0  0  0  0
  -19.5799   12.8192  -25.3668 H   0  0  0  0  0  0  0  0  0  0  0  0
  -21.2610   13.2991  -25.5109 H   0  0  0  0  0  0  0  0  0  0  0  0
  -16.3210   24.1247  -24.8853 H   0  0  0  0  0  0  0  0  0  0  0  0
  -20.1731   17.6521  -24.0082 H   0  0  0  0  0  0  0  0  0  0  0  0
  -19.0815   13.9011  -27.4582 H   0  0  0  0  0  0  0  0  0  0  0  0
  1 35  1  0  0  0  0
  1  2  1  0  0  0  0
  1  3  2  0  0  0  0
  2 36  1  0  0  0  0
  2  4  2  0  0  0  0
  3  5  1  0  0  0  0
  3 37  1  0  0  0  0
  4 38  1  0  0  0  0
  4  6  1  0  0  0  0
  5 20  1  0  0  0  0
  5  6  2  0  0  0  0
 21  6  1  0  0  0  0
  7  9  1  0  0  0  0
  7 39  1  0  0  0  0
  7  8  2  0  0  0  0
  8 40  1  0  0  0  0
  8 13  1  0  0  0  0
  9 11  2  0  0  0  0
  9 41  1  0  0  0  0
 10 12  2  0  0  0  0
 10 42  1  0  0  0  0
 10 26  1  0  0  0  0
 11 28  1  0  0  0  0
 11 43  1  0  0  0  0
 12 16  1  0  0  0  0
 12 14  1  0  0  0  0
 13 31  2  0  0  0  0
 13 28  1  0  0  0  0
 14 27  1  0  0  0  0
 14 32  2  0  0  0  0
 15 26  2  0  0  0  0
 15 23  1  0  0  0  0
 15 27  1  0  0  0  0
 16 17  2  0  0  0  0
 16 44  1  0  0  0  0
 17 18  1  0  0  0  0
 17 45  1  0  0  0  0
 18 29  1  0  0  0  0
 18 33  2  0  0  0  0
 19 30  1  0  0  0  0
 19 34  2  0  0  0  0
 19 24  1  0  0  0  0
 22 20  1  0  0  0  0
 20 46  1  0  0  0  0
 20 47  1  0  0  0  0
 21 48  1  0  0  0  0
 21 25  1  0  0  0  0
 21 22  1  0  0  0  0
 22 49  1  0  0  0  0
 22 29  1  0  0  0  0
 23 50  1  0  0  0  0
 23 51  1  0  0  0  0
 23 52  1  0  0  0  0
 24 53  1  0  0  0  0
 24 54  1  0  0  0  0
 24 28  1  0  0  0  0
 25 55  1  0  0  0  0
 25 56  1  0  0  0  0
 25 30  1  0  0  0  0
 27 57  1  0  0  0  0
 29 58  1  0  0  0  0
 30 59  1  0  0  0  0
M  ZZC   1 c1
M  ZZC   2 c2
M  ZZC   3 c3
M  ZZC   4 c4
M  ZZC   5 c5
M  ZZC   6 c6
M  ZZC   7 c7
M  ZZC   8 c8
M  ZZC   9 c9
M  ZZC  10 c10
M  ZZC  11 c11
M  ZZC  12 c12
M  ZZC  13 c13
M  ZZC  14 c14
M  ZZC  15 c15
M  ZZC  16 c16
M  ZZC  17 c17
M  ZZC  18 c18
M  ZZC  19 c19
M  ZZC  20 c20
M  ZZC  21 c21
M  ZZC  22 c22
M  ZZC  23 c23
M  ZZC  24 c24
M  ZZC  25 c25
M  ZZC  26 n1
M  ZZC  27 n2
M  ZZC  28 n3
M  ZZC  29 n4
M  ZZC  30 n5
M  ZZC  31 o1
M  ZZC  32 o2
M  ZZC  33 o3
M  ZZC  34 o4
M  ZZC  35 h1
M  ZZC  36 h2
M  ZZC  37 h3
M  ZZC  38 h4
M  ZZC  39 h5
M  ZZC  40 h6
M  ZZC  41 h7
M  ZZC  42 h8
M  ZZC  43 h9
M  ZZC  44 h10
M  ZZC  45 h11
M  ZZC  46 h12
M  ZZC  47 h13
M  ZZC  48 h14
M  ZZC  49 h15
M  ZZC  50 h16
M  ZZC  51 h17
M  ZZC  52 h18
M  ZZC  53 h19
M  ZZC  54 h20
M  ZZC  55 h21
M  ZZC  56 h22
M  ZZC  57 h23
M  ZZC  58 h24
M  ZZC  59 h25
M  ZZM   1 37
M  ZZI   1 125
M  ZZM   2 37
M  ZZI   2 125
M  ZZM   3 37
M  ZZI   3 125
M  ZZM   4 37
M  ZZI   4 125
M  ZZM   5 37
M  ZZI   5 124
M  ZZM   6 37
M  ZZI   6 124
M  ZZM   7 2
M  ZZI   7 120
M  ZZM   8 2
M  ZZI   8 120
M  ZZM   9 2
M  ZZI   9 120
M  ZZM  10 2
M  ZZI  10 120
M  ZZM  11 2
M  ZZI  11 120
M  ZZM  12 2
M  ZZI  12 120
M  ZZM  13 3
M  ZZI  13 121
M  ZZM  14 3
M  ZZI  14 121
M  ZZM  15 3
M  ZZI  15 121
M  ZZM  16 2
M  ZZI  16 120
M  ZZM  17 2
M  ZZI  17 120
M  ZZM  18 3
M  ZZI  18 121
M  ZZM  19 3
M  ZZI  19 121
M  ZZM  20 1
M  ZZI  20 112
M  ZZM  21 1
M  ZZI  21 113
M  ZZM  22 1
M  ZZI  22 113
M  ZZM  23 1
M  ZZI  23 111
M  ZZM  24 1
M  ZZI  24 112
M  ZZM  25 1
M  ZZI  25 112
M  ZZM  26 9
M  ZZI  26 220
M  ZZM  27 10
M  ZZI  27 191
M  ZZM  28 10
M  ZZI  28 192
M  ZZM  29 10
M  ZZI  29 211
M  ZZM  30 10
M  ZZI  30 211
M  ZZM  31 7
M  ZZI  31 81
M  ZZM  32 7
M  ZZI  32 81
M  ZZM  33 7
M  ZZI  33 81
M  ZZM  34 7
M  ZZI  34 81
M  ZZM  35 5
M  ZZI  35 1
M  ZZM  36 5
M  ZZI  36 1
M  ZZM  37 5
M  ZZI  37 1
M  ZZM  38 5
M  ZZI  38 1
M  ZZM  39 5
M  ZZI  39 1
M  ZZM  40 5
M  ZZI  40 1
M  ZZM  41 5
M  ZZI  41 1
M  ZZM  42 5
M  ZZI  42 1
M  ZZM  43 5
M  ZZI  43 1
M  ZZM  44 5
M  ZZI  44 1
M  ZZM  45 5
M  ZZI  45 1
M  ZZM  46 5
M  ZZI  46 1
M  ZZM  47 5
M  ZZI  47 1
M  ZZM  48 5
M  ZZI  48 1
M  ZZM  49 5
M  ZZI  49 1
M  ZZM  50 5
M  ZZI  50 1
M  ZZM  51 5
M  ZZI  51 1
M  ZZM  52 5
M  ZZI  52 1
M  ZZM  53 5
M  ZZI  53 1
M  ZZM  54 5
M  ZZI  54 1
M  ZZM  55 5
M  ZZI  55 1
M  ZZM  56 5
M  ZZI  56 1
M  ZZM  57 28
M  ZZI  57 11
M  ZZM  58 28
M  ZZI  58 11
M  ZZM  59 28
M  ZZI  59 11
M  END
> <IX>
40

> <NAME>
11

> <Score>
-29.833258

> <Natom>
59

> <Nflex>
5

> <Hbond>
-5.012379

> <Hphob>
-7.05837

> <VwInt>
-44.122391

> <Dsolv>
21.998527

> <SolEl>
12.406985

> <Eintl>
6.68676

> <RecConf>
ND

> <projPath>
icm/

> <NAME_>
11

$$$$
29
  MOLSOFT 08042117223D

 59 62  0  0  1  0  0  0  0  0999 V2000
  -20.9707   13.0464  -29.5400 C   0  0  0  0  0  0  0  0  0  0  0  0
  -22.2713   13.3466  -29.1587 C   0  0  0  0  0  0  0  0  0  0  0  0
  -19.9751   14.0085  -29.4746 C   0  0  0  0  0  0  0  0  0  0  0  0
  -22.5935   14.6137  -28.6979 C   0  0  0  0  0  0  0  0  0  0  0  0
  -20.3113   15.2659  -29.0058 C   0  0  0  0  0  0  0  0  0  0  0  0
  -21.5885   15.5670  -28.6142 C   0  0  0  0  0  0  0  0  0  0  0  0
  -17.7414   23.6406  -24.6183 C   0  0  0  0  0  0  0  0  0  0  0  0
  -16.7327   23.1224  -25.3265 C   0  0  0  0  0  0  0  0  0  0  0  0
  -19.0825   23.1947  -24.8299 C   0  0  0  0  0  0  0  0  0  0  0  0
  -23.1236   15.6915  -20.1111 C   0  0  0  0  0  0  0  0  0  0  0  0
  -19.3358   22.2830  -25.7705 C   0  0  0  0  0  0  0  0  0  0  0  0
  -22.3070   15.3826  -21.1317 C   0  0  0  0  0  0  0  0  0  0  0  0
  -16.9966   22.0851  -26.3585 C   0  0  0  0  0  0  0  0  0  0  0  0
  -21.5259   14.1164  -20.9878 C   0  0  0  0  0  0  0  0  0  0  0  0
  -22.6730   13.8655  -18.8801 C   0  0  0  0  0  0  0  0  0  0  0  0
  -22.2159   16.2689  -22.2782 C   0  0  0  0  0  0  0  0  0  0  0  0
  -21.8225   15.9347  -23.5179 C   0  0  0  0  0  0  0  0  0  0  0  0
  -21.9560   16.9715  -24.5717 C   0  0  0  0  0  0  0  0  0  0  0  0
  -19.0073   19.4018  -27.1491 C   0  0  0  0  0  0  0  0  0  0  0  0
  -19.4221   16.4531  -28.8828 C   0  0  0  0  0  0  0  0  0  0  0  0
  -21.6765   16.9943  -28.1530 C   0  0  2  0  0  0  0  0  0  0  0  0
  -20.1917   17.3093  -27.8746 C   0  0  2  0  0  0  0  0  0  0  0  0
  -22.8448   12.9673  -17.6868 C   0  0  0  0  0  0  0  0  0  0  0  0
  -18.6964   20.8166  -27.6245 C   0  0  0  0  0  0  0  0  0  0  0  0
  -22.5934   17.2406  -26.9498 C   0  0  0  0  0  0  0  0  0  0  0  0
  -23.3543   14.9590  -18.9798 N   0  0  0  0  0  0  0  0  0  0  0  0
  -21.7800   13.4396  -19.8304 N   0  0  0  0  0  0  0  0  0  0  0  0
  -18.3340   21.7478  -26.5520 N   0  0  0  0  0  0  0  0  0  0  0  0
  -22.2640   16.4218  -25.7953 N   0  0  0  0  0  0  0  0  0  0  0  0
  -19.8625   18.7258  -28.0118 N   0  0  0  0  0  0  0  0  0  0  0  0
  -16.0477   21.6066  -26.9615 O   0  0  0  0  0  0  0  0  0  0  0  0
  -20.7218   13.7141  -21.8166 O   0  0  0  0  0  0  0  0  0  0  0  0
  -21.8525   18.1666  -24.3350 O   0  0  0  0  0  0  0  0  0  0  0  0
  -18.5056   18.9089  -26.1473 O   0  0  0  0  0  0  0  0  0  0  0  0
  -20.7348   12.0516  -29.8976 H   0  0  0  0  0  0  0  0  0  0  0  0
  -23.0405   12.5838  -29.2248 H   0  0  0  0  0  0  0  0  0  0  0  0
  -18.9596   13.7816  -29.7837 H   0  0  0  0  0  0  0  0  0  0  0  0
  -23.6126   14.8465  -28.4100 H   0  0  0  0  0  0  0  0  0  0  0  0
  -17.5610   24.4001  -23.8649 H   0  0  0  0  0  0  0  0  0  0  0  0
  -15.7075   23.4343  -25.1761 H   0  0  0  0  0  0  0  0  0  0  0  0
  -19.8756   23.6125  -24.2201 H   0  0  0  0  0  0  0  0  0  0  0  0
  -23.7110   16.6035  -20.1563 H   0  0  0  0  0  0  0  0  0  0  0  0
  -20.3454   21.9294  -25.9519 H   0  0  0  0  0  0  0  0  0  0  0  0
  -22.5756   17.2803  -22.1071 H   0  0  0  0  0  0  0  0  0  0  0  0
  -21.5049   14.9387  -23.8041 H   0  0  0  0  0  0  0  0  0  0  0  0
  -18.4323   16.1884  -28.5179 H   0  0  0  0  0  0  0  0  0  0  0  0
  -19.3185   16.9490  -29.8541 H   0  0  0  0  0  0  0  0  0  0  0  0
  -22.0385   17.5991  -28.9941 H   0  0  0  0  0  0  0  0  0  0  0  0
  -19.9093   16.9852  -26.8652 H   0  0  0  0  0  0  0  0  0  0  0  0
  -21.9692   12.3290  -17.5553 H   0  0  0  0  0  0  0  0  0  0  0  0
  -23.7263   12.3371  -17.8379 H   0  0  0  0  0  0  0  0  0  0  0  0
  -22.9874   13.5697  -16.7848 H   0  0  0  0  0  0  0  0  0  0  0  0
  -17.8697   20.7452  -28.3357 H   0  0  0  0  0  0  0  0  0  0  0  0
  -19.5544   21.2325  -28.1658 H   0  0  0  0  0  0  0  0  0  0  0  0
  -22.5688   18.2988  -26.6713 H   0  0  0  0  0  0  0  0  0  0  0  0
  -23.6306   17.0027  -27.2055 H   0  0  0  0  0  0  0  0  0  0  0  0
  -21.2596   12.5832  -19.6888 H   0  0  0  0  0  0  0  0  0  0  0  0
  -22.3548   15.4150  -25.8805 H   0  0  0  0  0  0  0  0  0  0  0  0
  -20.2080   19.2054  -28.8365 H   0  0  0  0  0  0  0  0  0  0  0  0
  1 35  1  0  0  0  0
  1  2  1  0  0  0  0
  1  3  2  0  0  0  0
  2 36  1  0  0  0  0
  2  4  2  0  0  0  0
  3  5  1  0  0  0  0
  3 37  1  0  0  0  0
  4 38  1  0  0  0  0
  4  6  1  0  0  0  0
  5 20  1  0  0  0  0
  5  6  2  0  0  0  0
 21  6  1  0  0  0  0
  7  9  1  0  0  0  0
  7 39  1  0  0  0  0
  7  8  2  0  0  0  0
  8 40  1  0  0  0  0
  8 13  1  0  0  0  0
  9 11  2  0  0  0  0
  9 41  1  0  0  0  0
 10 12  2  0  0  0  0
 10 42  1  0  0  0  0
 10 26  1  0  0  0  0
 11 28  1  0  0  0  0
 11 43  1  0  0  0  0
 12 16  1  0  0  0  0
 12 14  1  0  0  0  0
 13 31  2  0  0  0  0
 13 28  1  0  0  0  0
 14 27  1  0  0  0  0
 14 32  2  0  0  0  0
 15 26  2  0  0  0  0
 15 23  1  0  0  0  0
 15 27  1  0  0  0  0
 16 17  2  0  0  0  0
 16 44  1  0  0  0  0
 17 18  1  0  0  0  0
 17 45  1  0  0  0  0
 18 29  1  0  0  0  0
 18 33  2  0  0  0  0
 19 30  1  0  0  0  0
 19 34  2  0  0  0  0
 19 24  1  0  0  0  0
 22 20  1  0  0  0  0
 20 46  1  0  0  0  0
 20 47  1  0  0  0  0
 21 48  1  0  0  0  0
 21 22  1  0  0  0  0
 21 25  1  0  0  0  0
 22 49  1  0  0  0  0
 22 30  1  0  0  0  0
 23 50  1  0  0  0  0
 23 51  1  0  0  0  0
 23 52  1  0  0  0  0
 24 53  1  0  0  0  0
 24 54  1  0  0  0  0
 24 28  1  0  0  0  0
 25 55  1  0  0  0  0
 25 56  1  0  0  0  0
 25 29  1  0  0  0  0
 27 57  1  0  0  0  0
 29 58  1  0  0  0  0
 30 59  1  0  0  0  0
M  ZZC   1 c1
M  ZZC   2 c2
M  ZZC   3 c3
M  ZZC   4 c4
M  ZZC   5 c5
M  ZZC   6 c6
M  ZZC   7 c7
M  ZZC   8 c8
M  ZZC   9 c9
M  ZZC  10 c10
M  ZZC  11 c11
M  ZZC  12 c12
M  ZZC  13 c13
M  ZZC  14 c14
M  ZZC  15 c15
M  ZZC  16 c16
M  ZZC  17 c17
M  ZZC  18 c18
M  ZZC  19 c19
M  ZZC  20 c20
M  ZZC  21 c21
M  ZZC  22 c22
M  ZZC  23 c23
M  ZZC  24 c24
M  ZZC  25 c25
M  ZZC  26 n1
M  ZZC  27 n2
M  ZZC  28 n3
M  ZZC  29 n4
M  ZZC  30 n5
M  ZZC  31 o1
M  ZZC  32 o2
M  ZZC  33 o3
M  ZZC  34 o4
M  ZZC  35 h1
M  ZZC  36 h2
M  ZZC  37 h3
M  ZZC  38 h4
M  ZZC  39 h5
M  ZZC  40 h6
M  ZZC  41 h7
M  ZZC  42 h8
M  ZZC  43 h9
M  ZZC  44 h10
M  ZZC  45 h11
M  ZZC  46 h12
M  ZZC  47 h13
M  ZZC  48 h14
M  ZZC  49 h15
M  ZZC  50 h16
M  ZZC  51 h17
M  ZZC  52 h18
M  ZZC  53 h19
M  ZZC  54 h20
M  ZZC  55 h21
M  ZZC  56 h22
M  ZZC  57 h23
M  ZZC  58 h24
M  ZZC  59 h25
M  ZZM   1 37
M  ZZI   1 125
M  ZZM   2 37
M  ZZI   2 125
M  ZZM   3 37
M  ZZI   3 125
M  ZZM   4 37
M  ZZI   4 125
M  ZZM   5 37
M  ZZI   5 124
M  ZZM   6 37
M  ZZI   6 124
M  ZZM   7 2
M  ZZI   7 120
M  ZZM   8 2
M  ZZI   8 120
M  ZZM   9 2
M  ZZI   9 120
M  ZZM  10 2
M  ZZI  10 120
M  ZZM  11 2
M  ZZI  11 120
M  ZZM  12 2
M  ZZI  12 120
M  ZZM  13 3
M  ZZI  13 121
M  ZZM  14 3
M  ZZI  14 121
M  ZZM  15 3
M  ZZI  15 121
M  ZZM  16 2
M  ZZI  16 120
M  ZZM  17 2
M  ZZI  17 120
M  ZZM  18 3
M  ZZI  18 121
M  ZZM  19 3
M  ZZI  19 121
M  ZZM  20 1
M  ZZI  20 112
M  ZZM  21 1
M  ZZI  21 113
M  ZZM  22 1
M  ZZI  22 113
M  ZZM  23 1
M  ZZI  23 111
M  ZZM  24 1
M  ZZI  24 112
M  ZZM  25 1
M  ZZI  25 112
M  ZZM  26 9
M  ZZI  26 220
M  ZZM  27 10
M  ZZI  27 191
M  ZZM  28 10
M  ZZI  28 192
M  ZZM  29 10
M  ZZI  29 211
M  ZZM  30 10
M  ZZI  30 211
M  ZZM  31 7
M  ZZI  31 81
M  ZZM  32 7
M  ZZI  32 81
M  ZZM  33 7
M  ZZI  33 81
M  ZZM  34 7
M  ZZI  34 81
M  ZZM  35 5
M  ZZI  35 1
M  ZZM  36 5
M  ZZI  36 1
M  ZZM  37 5
M  ZZI  37 1
M  ZZM  38 5
M  ZZI  38 1
M  ZZM  39 5
M  ZZI  39 1
M  ZZM  40 5
M  ZZI  40 1
M  ZZM  41 5
M  ZZI  41 1
M  ZZM  42 5
M  ZZI  42 1
M  ZZM  43 5
M  ZZI  43 1
M  ZZM  44 5
M  ZZI  44 1
M  ZZM  45 5
M  ZZI  45 1
M  ZZM  46 5
M  ZZI  46 1
M  ZZM  47 5
M  ZZI  47 1
M  ZZM  48 5
M  ZZI  48 1
M  ZZM  49 5
M  ZZI  49 1
M  ZZM  50 5
M  ZZI  50 1
M  ZZM  51 5
M  ZZI  51 1
M  ZZM  52 5
M  ZZI  52 1
M  ZZM  53 5
M  ZZI  53 1
M  ZZM  54 5
M  ZZI  54 1
M  ZZM  55 5
M  ZZI  55 1
M  ZZM  56 5
M  ZZI  56 1
M  ZZM  57 28
M  ZZI  57 11
M  ZZM  58 28
M  ZZI  58 11
M  ZZM  59 28
M  ZZI  59 11
M  END
> <IX>
41

> <NAME>
29

> <Score>
-36.742249

> <Natom>
59

> <Nflex>
5

> <Hbond>
-5.730809

> <Hphob>
-6.724017

> <VwInt>
-42.189905

> <Dsolv>
18.883819

> <SolEl>
7.529795

> <Eintl>
3.865274

> <RecConf>
ND

> <projPath>
icm/

> <NAME_>
29

$$$$
7
  MOLSOFT 08042117243D

 58 61  0  0  1  0  0  0  0  0999 V2000
  -20.5726   13.0501  -29.8577 C   0  0  0  0  0  0  0  0  0  0  0  0
  -21.8373   12.6664  -29.4647 C   0  0  0  0  0  0  0  0  0  0  0  0
  -19.9714   14.1758  -29.3281 C   0  0  0  0  0  0  0  0  0  0  0  0
  -22.5096   13.4091  -28.5175 C   0  0  0  0  0  0  0  0  0  0  0  0
  -20.0630   16.0590  -27.8168 C   0  0  0  0  0  0  0  0  0  0  0  0
  -20.7202   16.7625  -26.8235 C   0  0  0  0  0  0  0  0  0  0  0  0
  -22.5807   15.2716  -26.9960 C   0  0  0  0  0  0  0  0  0  0  0  0
  -20.6428   14.9281  -28.3746 C   0  0  0  0  0  0  0  0  0  0  0  0
  -21.9162   14.5372  -27.9654 C   0  0  0  0  0  0  0  0  0  0  0  0
  -21.9858   16.3705  -26.3881 C   0  0  0  0  0  0  0  0  0  0  0  0
  -17.1036   21.6562  -27.0149 C   0  0  0  0  0  0  0  0  0  0  0  0
  -15.9085   22.9686  -25.6477 C   0  0  0  0  0  0  0  0  0  0  0  0
  -18.2881   21.9433  -26.4545 C   0  0  0  0  0  0  0  0  0  0  0  0
  -20.9651   15.2741  -21.6745 C   0  0  0  0  0  0  0  0  0  0  0  0
  -21.3883   14.2258  -20.9694 C   0  0  0  0  0  0  0  0  0  0  0  0
  -18.2819   22.9663  -25.3642 C   0  0  0  0  0  0  0  0  0  0  0  0
  -19.8552   14.7413  -22.5237 C   0  0  0  0  0  0  0  0  0  0  0  0
  -19.4873   21.2445  -26.8722 C   0  0  0  0  0  0  0  0  0  0  0  0
  -20.5180   20.9882  -26.0520 C   0  0  0  0  0  0  0  0  0  0  0  0
  -21.6209   20.1139  -26.5130 C   0  0  0  0  0  0  0  0  0  0  0  0
  -22.4363   16.8564  -22.7862 C   0  0  0  0  0  0  0  0  0  0  0  0
  -22.4817   14.1569  -19.9520 C   0  0  0  0  0  0  0  0  0  0  0  0
  -21.3994   16.7084  -21.6929 C   0  0  0  0  0  0  0  0  0  0  0  0
  -23.2409   18.4615  -25.5888 C   0  0  0  0  0  0  0  0  0  0  0  0
  -22.7113   17.0531  -25.2498 C   0  0  2  0  0  0  0  0  0  0  0  0
  -15.8804   22.1328  -26.6331 N   0  0  0  0  0  0  0  0  0  0  0  0
  -17.0384   23.3987  -25.0152 N   0  0  0  0  0  0  0  0  0  0  0  0
  -20.6748   13.1244  -21.2915 N   0  0  0  0  0  0  0  0  0  0  0  0
  -22.2385   19.5030  -25.4453 N   0  0  0  0  0  0  0  0  0  0  0  0
  -21.8933   17.0183  -24.0413 N   0  0  0  0  0  0  0  0  0  0  0  0
  -19.2951   23.3852  -24.8258 O   0  0  0  0  0  0  0  0  0  0  0  0
  -19.2147   15.3875  -23.3411 O   0  0  0  0  0  0  0  0  0  0  0  0
  -21.8815   19.9422  -27.6946 O   0  0  0  0  0  0  0  0  0  0  0  0
  -23.6351   16.7850  -22.5618 O   0  0  0  0  0  0  0  0  0  0  0  0
  -19.6963   13.4092  -22.2249 O   0  0  0  0  0  0  0  0  0  0  0  0
  -20.0489   12.4601  -30.5917 H   0  0  0  0  0  0  0  0  0  0  0  0
  -22.2935   11.7776  -29.8871 H   0  0  0  0  0  0  0  0  0  0  0  0
  -18.9754   14.4552  -29.6601 H   0  0  0  0  0  0  0  0  0  0  0  0
  -23.4952   13.0890  -28.2023 H   0  0  0  0  0  0  0  0  0  0  0  0
  -19.0822   16.3934  -28.1411 H   0  0  0  0  0  0  0  0  0  0  0  0
  -20.2198   17.6164  -26.3796 H   0  0  0  0  0  0  0  0  0  0  0  0
  -23.5757   14.9680  -26.6878 H   0  0  0  0  0  0  0  0  0  0  0  0
  -17.0555   20.9230  -27.8143 H   0  0  0  0  0  0  0  0  0  0  0  0
  -14.9890   23.3958  -25.2307 H   0  0  0  0  0  0  0  0  0  0  0  0
  -19.4815   20.8233  -27.8743 H   0  0  0  0  0  0  0  0  0  0  0  0
  -20.5428   21.3248  -25.0222 H   0  0  0  0  0  0  0  0  0  0  0  0
  -22.0888   13.8169  -18.9894 H   0  0  0  0  0  0  0  0  0  0  0  0
  -23.2540   13.4516  -20.2742 H   0  0  0  0  0  0  0  0  0  0  0  0
  -22.9602   15.1277  -19.7982 H   0  0  0  0  0  0  0  0  0  0  0  0
  -20.5497   17.3750  -21.8756 H   0  0  0  0  0  0  0  0  0  0  0  0
  -21.8419   17.0102  -20.7388 H   0  0  0  0  0  0  0  0  0  0  0  0
  -23.6723   18.4924  -26.5952 H   0  0  0  0  0  0  0  0  0  0  0  0
  -24.0344   18.7281  -24.8830 H   0  0  0  0  0  0  0  0  0  0  0  0
  -23.5970   16.4459  -25.0364 H   0  0  0  0  0  0  0  0  0  0  0  0
  -16.9653   24.0603  -24.2497 H   0  0  0  0  0  0  0  0  0  0  0  0
  -20.6363   12.2830  -20.7185 H   0  0  0  0  0  0  0  0  0  0  0  0
  -21.9510   19.7354  -24.5008 H   0  0  0  0  0  0  0  0  0  0  0  0
  -20.8815   17.0385  -24.1384 H   0  0  0  0  0  0  0  0  0  0  0  0
  1  3  2  0  0  0  0
  1 36  1  0  0  0  0
  1  2  1  0  0  0  0
  2 37  1  0  0  0  0
  2  4  2  0  0  0  0
  3  8  1  0  0  0  0
  3 38  1  0  0  0  0
  4 39  1  0  0  0  0
  4  9  1  0  0  0  0
  5  6  2  0  0  0  0
  5 40  1  0  0  0  0
  5  8  1  0  0  0  0
  6 10  1  0  0  0  0
  6 41  1  0  0  0  0
  7  9  1  0  0  0  0
  7 42  1  0  0  0  0
  7 10  2  0  0  0  0
  8  9  2  0  0  0  0
 25 10  1  0  0  0  0
 11 13  2  0  0  0  0
 11 43  1  0  0  0  0
 11 26  1  0  0  0  0
 12 26  2  0  0  0  0
 12 44  1  0  0  0  0
 12 27  1  0  0  0  0
 13 18  1  0  0  0  0
 13 16  1  0  0  0  0
 14 17  1  0  0  0  0
 14 15  2  0  0  0  0
 14 23  1  0  0  0  0
 15 22  1  0  0  0  0
 15 28  1  0  0  0  0
 16 27  1  0  0  0  0
 16 31  2  0  0  0  0
 17 32  2  0  0  0  0
 17 35  1  0  0  0  0
 18 19  2  0  0  0  0
 18 45  1  0  0  0  0
 19 20  1  0  0  0  0
 19 46  1  0  0  0  0
 20 29  1  0  0  0  0
 20 33  2  0  0  0  0
 21 23  1  0  0  0  0
 21 34  2  0  0  0  0
 21 30  1  0  0  0  0
 22 47  1  0  0  0  0
 22 48  1  0  0  0  0
 22 49  1  0  0  0  0
 23 50  1  0  0  0  0
 23 51  1  0  0  0  0
 25 24  1  0  0  0  0
 24 52  1  0  0  0  0
 24 53  1  0  0  0  0
 24 29  1  0  0  0  0
 25 30  1  0  0  0  0
 25 54  1  0  0  0  0
 27 55  1  0  0  0  0
 28 56  1  0  0  0  0
 28 35  1  0  0  0  0
 29 57  1  0  0  0  0
 30 58  1  0  0  0  0
M  ZZC   1 c1
M  ZZC   2 c2
M  ZZC   3 c3
M  ZZC   4 c4
M  ZZC   5 c5
M  ZZC   6 c6
M  ZZC   7 c7
M  ZZC   8 c8
M  ZZC   9 c9
M  ZZC  10 c10
M  ZZC  11 c11
M  ZZC  12 c12
M  ZZC  13 c13
M  ZZC  14 c14
M  ZZC  15 c15
M  ZZC  16 c16
M  ZZC  17 c17
M  ZZC  18 c18
M  ZZC  19 c19
M  ZZC  20 c20
M  ZZC  21 c21
M  ZZC  22 c22
M  ZZC  23 c23
M  ZZC  24 c24
M  ZZC  25 c25
M  ZZC  26 n1
M  ZZC  27 n2
M  ZZC  28 n3
M  ZZC  29 n4
M  ZZC  30 n5
M  ZZC  31 o1
M  ZZC  32 o2
M  ZZC  33 o3
M  ZZC  34 o4
M  ZZC  35 o5
M  ZZC  36 h1
M  ZZC  37 h2
M  ZZC  38 h3
M  ZZC  39 h4
M  ZZC  40 h5
M  ZZC  41 h6
M  ZZC  42 h7
M  ZZC  43 h8
M  ZZC  44 h9
M  ZZC  45 h10
M  ZZC  46 h11
M  ZZC  47 h12
M  ZZC  48 h13
M  ZZC  49 h14
M  ZZC  50 h15
M  ZZC  51 h16
M  ZZC  52 h17
M  ZZC  53 h18
M  ZZC  54 h19
M  ZZC  55 h20
M  ZZC  56 h21
M  ZZC  57 h22
M  ZZC  58 h23
M  ZZM   1 37
M  ZZI   1 125
M  ZZM   2 37
M  ZZI   2 125
M  ZZM   3 37
M  ZZI   3 125
M  ZZM   4 37
M  ZZI   4 125
M  ZZM   5 37
M  ZZI   5 125
M  ZZM   6 37
M  ZZI   6 125
M  ZZM   7 37
M  ZZI   7 125
M  ZZM   8 37
M  ZZI   8 124
M  ZZM   9 37
M  ZZI   9 124
M  ZZM  10 37
M  ZZI  10 124
M  ZZM  11 2
M  ZZI  11 120
M  ZZM  12 3
M  ZZI  12 121
M  ZZM  13 2
M  ZZI  13 120
M  ZZM  14 2
M  ZZI  14 120
M  ZZM  15 2
M  ZZI  15 120
M  ZZM  16 3
M  ZZI  16 121
M  ZZM  17 3
M  ZZI  17 123
M  ZZM  18 2
M  ZZI  18 120
M  ZZM  19 2
M  ZZI  19 120
M  ZZM  20 3
M  ZZI  20 121
M  ZZM  21 3
M  ZZI  21 121
M  ZZM  22 1
M  ZZI  22 111
M  ZZM  23 1
M  ZZI  23 112
M  ZZM  24 1
M  ZZI  24 112
M  ZZM  25 1
M  ZZI  25 113
M  ZZM  26 9
M  ZZI  26 220
M  ZZM  27 10
M  ZZI  27 191
M  ZZM  28 40
M  ZZI  28 194
M  ZZM  29 10
M  ZZI  29 211
M  ZZM  30 10
M  ZZI  30 211
M  ZZM  31 7
M  ZZI  31 81
M  ZZM  32 7
M  ZZI  32 82
M  ZZM  33 7
M  ZZI  33 81
M  ZZM  34 7
M  ZZI  34 81
M  ZZM  35 6
M  ZZI  35 65
M  ZZM  36 5
M  ZZI  36 1
M  ZZM  37 5
M  ZZI  37 1
M  ZZM  38 5
M  ZZI  38 1
M  ZZM  39 5
M  ZZI  39 1
M  ZZM  40 5
M  ZZI  40 1
M  ZZM  41 5
M  ZZI  41 1
M  ZZM  42 5
M  ZZI  42 1
M  ZZM  43 5
M  ZZI  43 1
M  ZZM  44 5
M  ZZI  44 1
M  ZZM  45 5
M  ZZI  45 1
M  ZZM  46 5
M  ZZI  46 1
M  ZZM  47 5
M  ZZI  47 1
M  ZZM  48 5
M  ZZI  48 1
M  ZZM  49 5
M  ZZI  49 1
M  ZZM  50 5
M  ZZI  50 1
M  ZZM  51 5
M  ZZI  51 1
M  ZZM  52 5
M  ZZI  52 1
M  ZZM  53 5
M  ZZI  53 1
M  ZZM  54 5
M  ZZI  54 1
M  ZZM  55 28
M  ZZI  55 11
M  ZZM  56 28
M  ZZI  56 11
M  ZZM  57 28
M  ZZI  57 11
M  ZZM  58 28
M  ZZI  58 11
M  END
> <IX>
42

> <NAME>
7

> <Score>
-37.669661

> <Natom>
58

> <Nflex>
6

> <Hbond>
-6.467487

> <Hphob>
-6.253074

> <VwInt>
-42.75614

> <Dsolv>
18.130552

> <SolEl>
6.65508

> <Eintl>
6.747521

> <RecConf>
ND

> <projPath>
icm/

> <NAME_>
7

$$$$
42
  MOLSOFT 08042117263D

 60 63  0  0  1  0  0  0  0  0999 V2000
  -26.5160   17.7894  -32.4105 C   0  0  0  0  0  0  0  0  0  0  0  0
  -26.5854   18.8794  -31.5657 C   0  0  0  0  0  0  0  0  0  0  0  0
  -25.4419   16.9212  -32.3335 C   0  0  0  0  0  0  0  0  0  0  0  0
  -25.5756   19.1066  -30.6470 C   0  0  0  0  0  0  0  0  0  0  0  0
  -23.3250   16.2889  -31.3449 C   0  0  0  0  0  0  0  0  0  0  0  0
  -22.3113   16.5206  -30.4334 C   0  0  0  0  0  0  0  0  0  0  0  0
  -23.4660   18.4629  -29.6502 C   0  0  0  0  0  0  0  0  0  0  0  0
  -24.4176   17.1434  -31.4217 C   0  0  0  0  0  0  0  0  0  0  0  0
  -24.4856   18.2433  -30.5699 C   0  0  0  0  0  0  0  0  0  0  0  0
  -22.3633   17.6130  -29.5705 C   0  0  0  0  0  0  0  0  0  0  0  0
  -19.9520   13.8003  -23.4630 C   0  0  0  0  0  0  0  0  0  0  0  0
  -19.2087   22.1882  -25.9426 C   0  0  0  0  0  0  0  0  0  0  0  0
  -20.7665   13.5275  -21.3848 C   0  0  0  0  0  0  0  0  0  0  0  0
  -20.7894   14.7945  -23.8009 C   0  0  0  0  0  0  0  0  0  0  0  0
  -18.0343   21.8628  -26.5039 C   0  0  0  0  0  0  0  0  0  0  0  0
  -21.7906   15.1954  -22.7745 C   0  0  0  0  0  0  0  0  0  0  0  0
  -16.8410   22.5933  -26.0113 C   0  0  0  0  0  0  0  0  0  0  0  0
  -18.3761   23.8160  -24.6231 C   0  0  0  0  0  0  0  0  0  0  0  0
  -20.7222   15.5262  -25.0504 C   0  0  0  0  0  0  0  0  0  0  0  0
  -20.5607   14.9661  -26.2633 C   0  0  0  0  0  0  0  0  0  0  0  0
  -20.4741   15.7594  -27.5216 C   0  0  0  0  0  0  0  0  0  0  0  0
  -19.0067   20.2715  -28.2795 C   0  0  0  0  0  0  0  0  0  0  0  0
  -18.5024   24.9353  -23.6247 C   0  0  0  0  0  0  0  0  0  0  0  0
  -17.7810   20.8298  -27.5699 C   0  0  0  0  0  0  0  0  0  0  0  0
  -19.9265   18.2210  -29.3426 C   0  0  0  0  0  0  0  0  0  0  0  0
  -21.2451   17.9269  -28.5971 C   0  0  2  0  0  0  0  0  0  0  0  0
  -19.9279   13.1121  -22.2775 N   0  0  0  0  0  0  0  0  0  0  0  0
  -19.4225   23.1550  -25.0000 N   0  0  0  0  0  0  0  0  0  0  0  0
  -21.6702   14.5357  -21.5836 N   0  0  0  0  0  0  0  0  0  0  0  0
  -17.1109   23.5703  -25.0950 N   0  0  0  0  0  0  0  0  0  0  0  0
  -21.1655   16.9585  -27.5026 N   0  0  0  0  0  0  0  0  0  0  0  0
  -18.9284   18.9116  -28.5393 N   0  0  0  0  0  0  0  0  0  0  0  0
  -22.6659   16.0206  -22.9958 O   0  0  0  0  0  0  0  0  0  0  0  0
  -15.7133   22.3132  -26.3889 O   0  0  0  0  0  0  0  0  0  0  0  0
  -19.8463   15.3111  -28.4679 O   0  0  0  0  0  0  0  0  0  0  0  0
  -19.9486   20.9733  -28.6234 O   0  0  0  0  0  0  0  0  0  0  0  0
  -27.3045   17.6176  -33.1349 H   0  0  0  0  0  0  0  0  0  0  0  0
  -27.4312   19.5568  -31.6240 H   0  0  0  0  0  0  0  0  0  0  0  0
  -25.4107   16.0637  -32.9934 H   0  0  0  0  0  0  0  0  0  0  0  0
  -25.6482   19.9677  -29.9894 H   0  0  0  0  0  0  0  0  0  0  0  0
  -23.2425   15.4344  -32.0074 H   0  0  0  0  0  0  0  0  0  0  0  0
  -21.4646   15.8415  -30.4161 H   0  0  0  0  0  0  0  0  0  0  0  0
  -23.5260   19.3246  -28.9910 H   0  0  0  0  0  0  0  0  0  0  0  0
  -19.1866   13.4887  -24.1656 H   0  0  0  0  0  0  0  0  0  0  0  0
  -20.1147   21.6733  -26.2411 H   0  0  0  0  0  0  0  0  0  0  0  0
  -20.8158   13.0800  -20.3792 H   0  0  0  0  0  0  0  0  0  0  0  0
  -20.8166   16.6017  -24.9405 H   0  0  0  0  0  0  0  0  0  0  0  0
  -20.4249   13.8970  -26.3845 H   0  0  0  0  0  0  0  0  0  0  0  0
  -19.0374   25.7670  -24.0923 H   0  0  0  0  0  0  0  0  0  0  0  0
  -17.5228   25.2865  -23.2868 H   0  0  0  0  0  0  0  0  0  0  0  0
  -19.0811   24.5918  -22.7625 H   0  0  0  0  0  0  0  0  0  0  0  0
  -17.2049   20.0126  -27.1294 H   0  0  0  0  0  0  0  0  0  0  0  0
  -17.1586   21.2760  -28.3517 H   0  0  0  0  0  0  0  0  0  0  0  0
  -19.4541   17.3151  -29.7314 H   0  0  0  0  0  0  0  0  0  0  0  0
  -20.1292   18.8589  -30.2106 H   0  0  0  0  0  0  0  0  0  0  0  0
  -21.5259   18.8517  -28.0821 H   0  0  0  0  0  0  0  0  0  0  0  0
  -22.3164   14.7856  -20.8463 H   0  0  0  0  0  0  0  0  0  0  0  0
  -16.3271   24.0989  -24.7326 H   0  0  0  0  0  0  0  0  0  0  0  0
  -21.7677   17.1509  -26.7114 H   0  0  0  0  0  0  0  0  0  0  0  0
  -18.0956   18.3862  -28.2879 H   0  0  0  0  0  0  0  0  0  0  0  0
  1 37  1  0  0  0  0
  1  2  1  0  0  0  0
  1  3  2  0  0  0  0
  2 38  1  0  0  0  0
  2  4  2  0  0  0  0
  3  8  1  0  0  0  0
  3 39  1  0  0  0  0
  4 40  1  0  0  0  0
  4  9  1  0  0  0  0
  5  6  2  0  0  0  0
  5 41  1  0  0  0  0
  5  8  1  0  0  0  0
  6 10  1  0  0  0  0
  6 42  1  0  0  0  0
  7  9  1  0  0  0  0
  7 43  1  0  0  0  0
  7 10  2  0  0  0  0
  8  9  2  0  0  0  0
 26 10  1  0  0  0  0
 11 14  2  0  0  0  0
 11 44  1  0  0  0  0
 11 27  1  0  0  0  0
 12 15  2  0  0  0  0
 12 45  1  0  0  0  0
 12 28  1  0  0  0  0
 13 27  2  0  0  0  0
 13 46  1  0  0  0  0
 13 29  1  0  0  0  0
 14 19  1  0  0  0  0
 14 16  1  0  0  0  0
 15 24  1  0  0  0  0
 15 17  1  0  0  0  0
 16 29  1  0  0  0  0
 16 33  2  0  0  0  0
 17 30  1  0  0  0  0
 17 34  2  0  0  0  0
 18 28  2  0  0  0  0
 18 23  1  0  0  0  0
 18 30  1  0  0  0  0
 19 20  2  0  0  0  0
 19 47  1  0  0  0  0
 20 21  1  0  0  0  0
 20 48  1  0  0  0  0
 21 31  1  0  0  0  0
 21 35  2  0  0  0  0
 22 32  1  0  0  0  0
 22 36  2  0  0  0  0
 22 24  1  0  0  0  0
 23 49  1  0  0  0  0
 23 50  1  0  0  0  0
 23 51  1  0  0  0  0
 24 52  1  0  0  0  0
 24 53  1  0  0  0  0
 26 25  1  0  0  0  0
 25 54  1  0  0  0  0
 25 55  1  0  0  0  0
 25 32  1  0  0  0  0
 26 56  1  0  0  0  0
 26 31  1  0  0  0  0
 29 57  1  0  0  0  0
 30 58  1  0  0  0  0
 31 59  1  0  0  0  0
 32 60  1  0  0  0  0
M  ZZC   1 c1
M  ZZC   2 c2
M  ZZC   3 c3
M  ZZC   4 c4
M  ZZC   5 c5
M  ZZC   6 c6
M  ZZC   7 c7
M  ZZC   8 c8
M  ZZC   9 c9
M  ZZC  10 c10
M  ZZC  11 c11
M  ZZC  12 c12
M  ZZC  13 c13
M  ZZC  14 c14
M  ZZC  15 c15
M  ZZC  16 c16
M  ZZC  17 c17
M  ZZC  18 c18
M  ZZC  19 c19
M  ZZC  20 c20
M  ZZC  21 c21
M  ZZC  22 c22
M  ZZC  23 c23
M  ZZC  24 c24
M  ZZC  25 c25
M  ZZC  26 c26
M  ZZC  27 n1
M  ZZC  28 n2
M  ZZC  29 n3
M  ZZC  30 n4
M  ZZC  31 n5
M  ZZC  32 n6
M  ZZC  33 o1
M  ZZC  34 o2
M  ZZC  35 o3
M  ZZC  36 o4
M  ZZC  37 h1
M  ZZC  38 h2
M  ZZC  39 h3
M  ZZC  40 h4
M  ZZC  41 h5
M  ZZC  42 h6
M  ZZC  43 h7
M  ZZC  44 h8
M  ZZC  45 h9
M  ZZC  46 h10
M  ZZC  47 h11
M  ZZC  48 h12
M  ZZC  49 h13
M  ZZC  50 h14
M  ZZC  51 h15
M  ZZC  52 h16
M  ZZC  53 h17
M  ZZC  54 h18
M  ZZC  55 h19
M  ZZC  56 h20
M  ZZC  57 h21
M  ZZC  58 h22
M  ZZC  59 h23
M  ZZC  60 h24
M  ZZM   1 37
M  ZZI   1 125
M  ZZM   2 37
M  ZZI   2 125
M  ZZM   3 37
M  ZZI   3 125
M  ZZM   4 37
M  ZZI   4 125
M  ZZM   5 37
M  ZZI   5 125
M  ZZM   6 37
M  ZZI   6 125
M  ZZM   7 37
M  ZZI   7 125
M  ZZM   8 37
M  ZZI   8 124
M  ZZM   9 37
M  ZZI   9 124
M  ZZM  10 37
M  ZZI  10 124
M  ZZM  11 2
M  ZZI  11 120
M  ZZM  12 2
M  ZZI  12 120
M  ZZM  13 3
M  ZZI  13 121
M  ZZM  14 2
M  ZZI  14 120
M  ZZM  15 2
M  ZZI  15 120
M  ZZM  16 3
M  ZZI  16 121
M  ZZM  17 3
M  ZZI  17 121
M  ZZM  18 3
M  ZZI  18 121
M  ZZM  19 2
M  ZZI  19 120
M  ZZM  20 2
M  ZZI  20 120
M  ZZM  21 3
M  ZZI  21 121
M  ZZM  22 3
M  ZZI  22 121
M  ZZM  23 1
M  ZZI  23 111
M  ZZM  24 1
M  ZZI  24 112
M  ZZM  25 1
M  ZZI  25 112
M  ZZM  26 1
M  ZZI  26 113
M  ZZM  27 9
M  ZZI  27 220
M  ZZM  28 9
M  ZZI  28 220
M  ZZM  29 10
M  ZZI  29 191
M  ZZM  30 10
M  ZZI  30 191
M  ZZM  31 10
M  ZZI  31 211
M  ZZM  32 10
M  ZZI  32 211
M  ZZM  33 7
M  ZZI  33 81
M  ZZM  34 7
M  ZZI  34 81
M  ZZM  35 7
M  ZZI  35 81
M  ZZM  36 7
M  ZZI  36 81
M  ZZM  37 5
M  ZZI  37 1
M  ZZM  38 5
M  ZZI  38 1
M  ZZM  39 5
M  ZZI  39 1
M  ZZM  40 5
M  ZZI  40 1
M  ZZM  41 5
M  ZZI  41 1
M  ZZM  42 5
M  ZZI  42 1
M  ZZM  43 5
M  ZZI  43 1
M  ZZM  44 5
M  ZZI  44 1
M  ZZM  45 5
M  ZZI  45 1
M  ZZM  46 5
M  ZZI  46 1
M  ZZM  47 5
M  ZZI  47 1
M  ZZM  48 5
M  ZZI  48 1
M  ZZM  49 5
M  ZZI  49 1
M  ZZM  50 5
M  ZZI  50 1
M  ZZM  51 5
M  ZZI  51 1
M  ZZM  52 5
M  ZZI  52 1
M  ZZM  53 5
M  ZZI  53 1
M  ZZM  54 5
M  ZZI  54 1
M  ZZM  55 5
M  ZZI  55 1
M  ZZM  56 5
M  ZZI  56 1
M  ZZM  57 28
M  ZZI  57 11
M  ZZM  58 28
M  ZZI  58 11
M  ZZM  59 28
M  ZZI  59 11
M  ZZM  60 28
M  ZZI  60 11
M  END
> <IX>
43

> <NAME>
42

> <Score>
-36.108524

> <Natom>
60

> <Nflex>
6

> <Hbond>
-7.945499

> <Hphob>
-6.453714

> <VwInt>
-44.318977

> <Dsolv>
22.078637

> <SolEl>
8.480799

> <Eintl>
11.46708

> <RecConf>
ND

> <projPath>
icm/

> <NAME_>
42

$$$$
54
  MOLSOFT 08042117283D

 58 61  0  0  1  0  0  0  0  0999 V2000
  -26.8887   18.5690  -32.2092 C   0  0  0  0  0  0  0  0  0  0  0  0
  -26.7875   19.3027  -31.0428 C   0  0  0  0  0  0  0  0  0  0  0  0
  -25.8724   17.7010  -32.5657 C   0  0  0  0  0  0  0  0  0  0  0  0
  -25.6733   19.1656  -30.2318 C   0  0  0  0  0  0  0  0  0  0  0  0
  -23.7115   16.7062  -32.1203 C   0  0  0  0  0  0  0  0  0  0  0  0
  -22.6141   16.5448  -31.2927 C   0  0  0  0  0  0  0  0  0  0  0  0
  -23.5388   18.1206  -29.7545 C   0  0  0  0  0  0  0  0  0  0  0  0
  -24.7436   17.5639  -31.7653 C   0  0  0  0  0  0  0  0  0  0  0  0
  -24.6454   18.2929  -30.5827 C   0  0  0  0  0  0  0  0  0  0  0  0
  -22.5110   17.2342  -30.0868 C   0  0  0  0  0  0  0  0  0  0  0  0
  -22.2035   15.1817  -21.6283 C   0  0  0  0  0  0  0  0  0  0  0  0
  -21.2308   14.2655  -21.5670 C   0  0  0  0  0  0  0  0  0  0  0  0
  -19.2564   22.3605  -25.7465 C   0  0  0  0  0  0  0  0  0  0  0  0
  -17.8372   23.7300  -24.6648 C   0  0  0  0  0  0  0  0  0  0  0  0
  -18.3227   21.7396  -26.4875 C   0  0  0  0  0  0  0  0  0  0  0  0
  -22.4938   15.9139  -22.8779 C   0  0  0  0  0  0  0  0  0  0  0  0
  -20.3972   13.9343  -22.7403 C   0  0  0  0  0  0  0  0  0  0  0  0
  -16.9219   22.2018  -26.2700 C   0  0  0  0  0  0  0  0  0  0  0  0
  -18.6081   20.7121  -27.4802 C   0  0  0  0  0  0  0  0  0  0  0  0
  -19.6737   19.8898  -27.4606 C   0  0  0  0  0  0  0  0  0  0  0  0
  -19.8830   18.8733  -28.5318 C   0  0  0  0  0  0  0  0  0  0  0  0
  -20.8370   14.4195  -26.3635 C   0  0  0  0  0  0  0  0  0  0  0  0
  -19.9233   14.4618  -25.1479 C   0  0  0  0  0  0  0  0  0  0  0  0
  -21.6621   15.7230  -28.2882 C   0  0  0  0  0  0  0  0  0  0  0  0
  -21.3429   16.9547  -29.1566 C   0  0  2  0  0  0  0  0  0  0  0  0
  -19.0617   23.3490  -24.8188 N   0  0  0  0  0  0  0  0  0  0  0  0
  -16.7817   23.2087  -25.3564 N   0  0  0  0  0  0  0  0  0  0  0  0
  -21.6574   15.6576  -23.9361 N   0  0  0  0  0  0  0  0  0  0  0  0
  -20.6753   14.6441  -23.9018 N   0  0  0  0  0  0  0  0  0  0  0  0
  -21.0039   18.0997  -28.3117 N   0  0  0  0  0  0  0  0  0  0  0  0
  -20.6985   15.4961  -27.2185 N   0  0  0  0  0  0  0  0  0  0  0  0
  -23.4439   16.6771  -22.9433 O   0  0  0  0  0  0  0  0  0  0  0  0
  -19.5350   13.0777  -22.6328 O   0  0  0  0  0  0  0  0  0  0  0  0
  -15.9635   21.7025  -26.8371 O   0  0  0  0  0  0  0  0  0  0  0  0
  -19.1378   18.7416  -29.4899 O   0  0  0  0  0  0  0  0  0  0  0  0
  -21.6774   13.5490  -26.5262 O   0  0  0  0  0  0  0  0  0  0  0  0
  -27.7602   18.6762  -32.8483 H   0  0  0  0  0  0  0  0  0  0  0  0
  -27.5843   19.9830  -30.7599 H   0  0  0  0  0  0  0  0  0  0  0  0
  -25.9759   17.1229  -33.4754 H   0  0  0  0  0  0  0  0  0  0  0  0
  -25.6196   19.7437  -29.3141 H   0  0  0  0  0  0  0  0  0  0  0  0
  -23.7553   16.1462  -33.0494 H   0  0  0  0  0  0  0  0  0  0  0  0
  -21.8321   15.8559  -31.5977 H   0  0  0  0  0  0  0  0  0  0  0  0
  -23.4961   18.6726  -28.8212 H   0  0  0  0  0  0  0  0  0  0  0  0
  -22.8217   15.4095  -20.7680 H   0  0  0  0  0  0  0  0  0  0  0  0
  -21.0241   13.7197  -20.6534 H   0  0  0  0  0  0  0  0  0  0  0  0
  -20.2977   22.0857  -25.8591 H   0  0  0  0  0  0  0  0  0  0  0  0
  -17.5582   24.5204  -23.9489 H   0  0  0  0  0  0  0  0  0  0  0  0
  -17.8820   20.6248  -28.2828 H   0  0  0  0  0  0  0  0  0  0  0  0
  -20.4098   19.9296  -26.6667 H   0  0  0  0  0  0  0  0  0  0  0  0
  -19.3579   13.5275  -25.1088 H   0  0  0  0  0  0  0  0  0  0  0  0
  -19.2076   15.2843  -25.2234 H   0  0  0  0  0  0  0  0  0  0  0  0
  -22.6409   15.8306  -27.8050 H   0  0  0  0  0  0  0  0  0  0  0  0
  -21.7169   14.8145  -28.8993 H   0  0  0  0  0  0  0  0  0  0  0  0
  -20.4568   16.7294  -29.7611 H   0  0  0  0  0  0  0  0  0  0  0  0
  -15.8485   23.5489  -25.1650 H   0  0  0  0  0  0  0  0  0  0  0  0
  -21.8323   16.1412  -24.8109 H   0  0  0  0  0  0  0  0  0  0  0  0
  -21.6103   18.3083  -27.5271 H   0  0  0  0  0  0  0  0  0  0  0  0
  -19.9678   16.1849  -27.0689 H   0  0  0  0  0  0  0  0  0  0  0  0
  1 37  1  0  0  0  0
  1  2  1  0  0  0  0
  1  3  2  0  0  0  0
  2 38  1  0  0  0  0
  2  4  2  0  0  0  0
  3  8  1  0  0  0  0
  3 39  1  0  0  0  0
  4 40  1  0  0  0  0
  4  9  1  0  0  0  0
  5  6  2  0  0  0  0
  5 41  1  0  0  0  0
  5  8  1  0  0  0  0
  6 10  1  0  0  0  0
  6 42  1  0  0  0  0
  7  9  1  0  0  0  0
  7 43  1  0  0  0  0
  7 10  2  0  0  0  0
  8  9  2  0  0  0  0
 25 10  1  0  0  0  0
 11 12  2  0  0  0  0
 11 44  1  0  0  0  0
 11 16  1  0  0  0  0
 12 17  1  0  0  0  0
 12 45  1  0  0  0  0
 13 15  2  0  0  0  0
 13 46  1  0  0  0  0
 13 26  1  0  0  0  0
 14 26  2  0  0  0  0
 14 47  1  0  0  0  0
 14 27  1  0  0  0  0
 15 19  1  0  0  0  0
 15 18  1  0  0  0  0
 16 32  2  0  0  0  0
 16 28  1  0  0  0  0
 17 29  1  0  0  0  0
 17 33  2  0  0  0  0
 18 27  1  0  0  0  0
 18 34  2  0  0  0  0
 19 20  2  0  0  0  0
 19 48  1  0  0  0  0
 20 21  1  0  0  0  0
 20 49  1  0  0  0  0
 21 30  1  0  0  0  0
 21 35  2  0  0  0  0
 22 31  1  0  0  0  0
 22 36  2  0  0  0  0
 22 23  1  0  0  0  0
 23 50  1  0  0  0  0
 23 51  1  0  0  0  0
 23 29  1  0  0  0  0
 25 24  1  0  0  0  0
 24 52  1  0  0  0  0
 24 53  1  0  0  0  0
 24 31  1  0  0  0  0
 25 54  1  0  0  0  0
 25 30  1  0  0  0  0
 27 55  1  0  0  0  0
 28 56  1  0  0  0  0
 28 29  1  0  0  0  0
 30 57  1  0  0  0  0
 31 58  1  0  0  0  0
M  ZZC   1 c1
M  ZZC   2 c2
M  ZZC   3 c3
M  ZZC   4 c4
M  ZZC   5 c5
M  ZZC   6 c6
M  ZZC   7 c7
M  ZZC   8 c8
M  ZZC   9 c9
M  ZZC  10 c10
M  ZZC  11 c11
M  ZZC  12 c12
M  ZZC  13 c13
M  ZZC  14 c14
M  ZZC  15 c15
M  ZZC  16 c16
M  ZZC  17 c17
M  ZZC  18 c18
M  ZZC  19 c19
M  ZZC  20 c20
M  ZZC  21 c21
M  ZZC  22 c22
M  ZZC  23 c23
M  ZZC  24 c24
M  ZZC  25 c25
M  ZZC  26 n1
M  ZZC  27 n2
M  ZZC  28 n3
M  ZZC  29 n4
M  ZZC  30 n5
M  ZZC  31 n6
M  ZZC  32 o1
M  ZZC  33 o2
M  ZZC  34 o3
M  ZZC  35 o4
M  ZZC  36 o5
M  ZZC  37 h1
M  ZZC  38 h2
M  ZZC  39 h3
M  ZZC  40 h4
M  ZZC  41 h5
M  ZZC  42 h6
M  ZZC  43 h7
M  ZZC  44 h8
M  ZZC  45 h9
M  ZZC  46 h10
M  ZZC  47 h11
M  ZZC  48 h12
M  ZZC  49 h13
M  ZZC  50 h14
M  ZZC  51 h15
M  ZZC  52 h16
M  ZZC  53 h17
M  ZZC  54 h18
M  ZZC  55 h19
M  ZZC  56 h20
M  ZZC  57 h21
M  ZZC  58 h22
M  ZZM   1 37
M  ZZI   1 125
M  ZZM   2 37
M  ZZI   2 125
M  ZZM   3 37
M  ZZI   3 125
M  ZZM   4 37
M  ZZI   4 125
M  ZZM   5 37
M  ZZI   5 125
M  ZZM   6 37
M  ZZI   6 125
M  ZZM   7 37
M  ZZI   7 125
M  ZZM   8 37
M  ZZI   8 124
M  ZZM   9 37
M  ZZI   9 124
M  ZZM  10 37
M  ZZI  10 124
M  ZZM  11 2
M  ZZI  11 120
M  ZZM  12 2
M  ZZI  12 120
M  ZZM  13 2
M  ZZI  13 120
M  ZZM  14 3
M  ZZI  14 121
M  ZZM  15 2
M  ZZI  15 120
M  ZZM  16 3
M  ZZI  16 121
M  ZZM  17 3
M  ZZI  17 121
M  ZZM  18 3
M  ZZI  18 121
M  ZZM  19 2
M  ZZI  19 120
M  ZZM  20 2
M  ZZI  20 120
M  ZZM  21 3
M  ZZI  21 121
M  ZZM  22 3
M  ZZI  22 121
M  ZZM  23 1
M  ZZI  23 112
M  ZZM  24 1
M  ZZI  24 112
M  ZZM  25 1
M  ZZI  25 113
M  ZZM  26 9
M  ZZI  26 220
M  ZZM  27 10
M  ZZI  27 191
M  ZZM  28 10
M  ZZI  28 191
M  ZZM  29 10
M  ZZI  29 192
M  ZZM  30 10
M  ZZI  30 211
M  ZZM  31 10
M  ZZI  31 211
M  ZZM  32 7
M  ZZI  32 81
M  ZZM  33 7
M  ZZI  33 81
M  ZZM  34 7
M  ZZI  34 81
M  ZZM  35 7
M  ZZI  35 81
M  ZZM  36 7
M  ZZI  36 81
M  ZZM  37 5
M  ZZI  37 1
M  ZZM  38 5
M  ZZI  38 1
M  ZZM  39 5
M  ZZI  39 1
M  ZZM  40 5
M  ZZI  40 1
M  ZZM  41 5
M  ZZI  41 1
M  ZZM  42 5
M  ZZI  42 1
M  ZZM  43 5
M  ZZI  43 1
M  ZZM  44 5
M  ZZI  44 1
M  ZZM  45 5
M  ZZI  45 1
M  ZZM  46 5
M  ZZI  46 1
M  ZZM  47 5
M  ZZI  47 1
M  ZZM  48 5
M  ZZI  48 1
M  ZZM  49 5
M  ZZI  49 1
M  ZZM  50 5
M  ZZI  50 1
M  ZZM  51 5
M  ZZI  51 1
M  ZZM  52 5
M  ZZI  52 1
M  ZZM  53 5
M  ZZI  53 1
M  ZZM  54 5
M  ZZI  54 1
M  ZZM  55 28
M  ZZI  55 11
M  ZZM  56 28
M  ZZI  56 11
M  ZZM  57 28
M  ZZI  57 11
M  ZZM  58 28
M  ZZI  58 11
M  END
> <IX>
44

> <NAME>
54

> <Score>
-25.117125

> <Natom>
58

> <Nflex>
6

> <Hbond>
-5.839747

> <Hphob>
-6.062464

> <VwInt>
-41.510561

> <Dsolv>
22.851941

> <SolEl>
12.816502

> <Eintl>
10.053334

> <RecConf>
ND

> <projPath>
icm/

> <NAME_>
54

$$$$
19
  MOLSOFT 08042116493D

 60 63  0  0  1  0  0  0  0  0999 V2000
  -27.5500   18.8146  -32.4821 C   0  0  0  0  0  0  0  0  0  0  0  0
  -27.4940   19.4801  -31.2727 C   0  0  0  0  0  0  0  0  0  0  0  0
  -26.4855   18.0291  -32.8883 C   0  0  0  0  0  0  0  0  0  0  0  0
  -26.3745   19.3592  -30.4685 C   0  0  0  0  0  0  0  0  0  0  0  0
  -24.2740   17.1244  -32.4851 C   0  0  0  0  0  0  0  0  0  0  0  0
  -23.1589   17.0028  -31.6770 C   0  0  0  0  0  0  0  0  0  0  0  0
  -24.1736   18.4411  -30.0605 C   0  0  0  0  0  0  0  0  0  0  0  0
  -25.3531   17.9049  -32.0909 C   0  0  0  0  0  0  0  0  0  0  0  0
  -25.2963   18.5757  -30.8716 C   0  0  0  0  0  0  0  0  0  0  0  0
  -23.0885   17.6524  -30.4472 C   0  0  0  0  0  0  0  0  0  0  0  0
  -19.2961   22.2284  -25.7456 C   0  0  0  0  0  0  0  0  0  0  0  0
  -19.8114   13.3954  -23.9266 C   0  0  0  0  0  0  0  0  0  0  0  0
  -17.8296   23.6338  -24.7764 C   0  0  0  0  0  0  0  0  0  0  0  0
  -20.2702   14.2376  -21.9034 C   0  0  0  0  0  0  0  0  0  0  0  0
  -18.4145   21.6429  -26.5757 C   0  0  0  0  0  0  0  0  0  0  0  0
  -20.0453   14.5289  -24.5960 C   0  0  0  0  0  0  0  0  0  0  0  0
  -17.0028   22.0999  -26.4214 C   0  0  0  0  0  0  0  0  0  0  0  0
  -20.4352   15.7162  -23.7984 C   0  0  0  0  0  0  0  0  0  0  0  0
  -18.7322   20.5732  -27.5162 C   0  0  0  0  0  0  0  0  0  0  0  0
  -19.9659   20.2540  -27.9502 C   0  0  0  0  0  0  0  0  0  0  0  0
  -20.1777   19.1164  -28.8897 C   0  0  0  0  0  0  0  0  0  0  0  0
  -21.1450   14.8751  -26.8255 C   0  0  0  0  0  0  0  0  0  0  0  0
  -20.9384   16.5649  -21.5556 C   0  0  0  0  0  0  0  0  0  0  0  0
  -19.8449   14.6507  -26.0829 C   0  0  0  0  0  0  0  0  0  0  0  0
  -22.2117   16.2830  -28.5559 C   0  0  0  0  0  0  0  0  0  0  0  0
  -21.8906   17.4176  -29.5485 C   0  0  2  0  0  0  0  0  0  0  0  0
  -19.0545   23.2281  -24.8403 N   0  0  0  0  0  0  0  0  0  0  0  0
  -19.8953   13.2009  -22.5782 N   0  0  0  0  0  0  0  0  0  0  0  0
  -16.8163   23.1196  -25.5317 N   0  0  0  0  0  0  0  0  0  0  0  0
  -20.5550   15.4777  -22.4410 N   0  0  0  0  0  0  0  0  0  0  0  0
  -21.4680   18.6276  -28.8394 N   0  0  0  0  0  0  0  0  0  0  0  0
  -21.0612   15.8853  -27.7626 N   0  0  0  0  0  0  0  0  0  0  0  0
  -16.0668   21.5887  -27.0150 O   0  0  0  0  0  0  0  0  0  0  0  0
  -20.6136   16.7953  -24.3461 O   0  0  0  0  0  0  0  0  0  0  0  0
  -19.2938   18.6656  -29.6019 O   0  0  0  0  0  0  0  0  0  0  0  0
  -22.1493   14.2088  -26.6233 O   0  0  0  0  0  0  0  0  0  0  0  0
  -28.4265   18.9096  -33.1154 H   0  0  0  0  0  0  0  0  0  0  0  0
  -28.3280   20.0977  -30.9554 H   0  0  0  0  0  0  0  0  0  0  0  0
  -26.5533   17.5137  -33.8385 H   0  0  0  0  0  0  0  0  0  0  0  0
  -26.3530   19.8857  -29.5190 H   0  0  0  0  0  0  0  0  0  0  0  0
  -24.2914   16.5919  -33.4296 H   0  0  0  0  0  0  0  0  0  0  0  0
  -22.3413   16.3733  -32.0187 H   0  0  0  0  0  0  0  0  0  0  0  0
  -24.1585   18.9415  -29.0977 H   0  0  0  0  0  0  0  0  0  0  0  0
  -20.3322   21.9125  -25.7481 H   0  0  0  0  0  0  0  0  0  0  0  0
  -19.5004   12.5258  -24.4877 H   0  0  0  0  0  0  0  0  0  0  0  0
  -17.5149   24.4356  -24.0884 H   0  0  0  0  0  0  0  0  0  0  0  0
  -20.3822   14.1742  -20.8079 H   0  0  0  0  0  0  0  0  0  0  0  0
  -17.8873   19.9945  -27.8772 H   0  0  0  0  0  0  0  0  0  0  0  0
  -20.8482   20.7924  -27.6277 H   0  0  0  0  0  0  0  0  0  0  0  0
  -20.0261   17.0322  -21.1723 H   0  0  0  0  0  0  0  0  0  0  0  0
  -21.5255   17.3192  -22.0874 H   0  0  0  0  0  0  0  0  0  0  0  0
  -21.5103   16.1762  -20.7079 H   0  0  0  0  0  0  0  0  0  0  0  0
  -19.3939   13.7436  -26.4997 H   0  0  0  0  0  0  0  0  0  0  0  0
  -19.1533   15.4691  -26.2927 H   0  0  0  0  0  0  0  0  0  0  0  0
  -23.0017   16.5798  -27.8558 H   0  0  0  0  0  0  0  0  0  0  0  0
  -22.5717   15.3901  -29.0805 H   0  0  0  0  0  0  0  0  0  0  0  0
  -21.0483   17.0980  -30.1731 H   0  0  0  0  0  0  0  0  0  0  0  0
  -15.8764   23.4707  -25.4040 H   0  0  0  0  0  0  0  0  0  0  0  0
  -22.1337   19.0624  -28.2118 H   0  0  0  0  0  0  0  0  0  0  0  0
  -20.2043   16.4222  -27.8555 H   0  0  0  0  0  0  0  0  0  0  0  0
  1 37  1  0  0  0  0
  1  2  1  0  0  0  0
  1  3  2  0  0  0  0
  2 38  1  0  0  0  0
  2  4  2  0  0  0  0
  3  8  1  0  0  0  0
  3 39  1  0  0  0  0
  4 40  1  0  0  0  0
  4  9  1  0  0  0  0
  5  6  2  0  0  0  0
  5 41  1  0  0  0  0
  5  8  1  0  0  0  0
  6 10  1  0  0  0  0
  6 42  1  0  0  0  0
  7  9  1  0  0  0  0
  7 43  1  0  0  0  0
  7 10  2  0  0  0  0
  8  9  2  0  0  0  0
 26 10  1  0  0  0  0
 11 15  2  0  0  0  0
 11 44  1  0  0  0  0
 11 27  1  0  0  0  0
 12 16  2  0  0  0  0
 12 45  1  0  0  0  0
 12 28  1  0  0  0  0
 13 27  2  0  0  0  0
 13 46  1  0  0  0  0
 13 29  1  0  0  0  0
 14 28  2  0  0  0  0
 14 47  1  0  0  0  0
 14 30  1  0  0  0  0
 15 19  1  0  0  0  0
 15 17  1  0  0  0  0
 16 24  1  0  0  0  0
 16 18  1  0  0  0  0
 17 29  1  0  0  0  0
 17 33  2  0  0  0  0
 18 30  1  0  0  0  0
 18 34  2  0  0  0  0
 19 20  2  0  0  0  0
 19 48  1  0  0  0  0
 20 21  1  0  0  0  0
 20 49  1  0  0  0  0
 21 31  1  0  0  0  0
 21 35  2  0  0  0  0
 22 32  1  0  0  0  0
 22 36  2  0  0  0  0
 22 24  1  0  0  0  0
 23 30  1  0  0  0  0
 23 50  1  0  0  0  0
 23 51  1  0  0  0  0
 23 52  1  0  0  0  0
 24 53  1  0  0  0  0
 24 54  1  0  0  0  0
 26 25  1  0  0  0  0
 25 55  1  0  0  0  0
 25 56  1  0  0  0  0
 25 32  1  0  0  0  0
 26 57  1  0  0  0  0
 26 31  1  0  0  0  0
 29 58  1  0  0  0  0
 31 59  1  0  0  0  0
 32 60  1  0  0  0  0
M  ZZC   1 c1
M  ZZC   2 c2
M  ZZC   3 c3
M  ZZC   4 c4
M  ZZC   5 c5
M  ZZC   6 c6
M  ZZC   7 c7
M  ZZC   8 c8
M  ZZC   9 c9
M  ZZC  10 c10
M  ZZC  11 c11
M  ZZC  12 c12
M  ZZC  13 c13
M  ZZC  14 c14
M  ZZC  15 c15
M  ZZC  16 c16
M  ZZC  17 c17
M  ZZC  18 c18
M  ZZC  19 c19
M  ZZC  20 c20
M  ZZC  21 c21
M  ZZC  22 c22
M  ZZC  23 c23
M  ZZC  24 c24
M  ZZC  25 c25
M  ZZC  26 c26
M  ZZC  27 n1
M  ZZC  28 n2
M  ZZC  29 n3
M  ZZC  30 n4
M  ZZC  31 n5
M  ZZC  32 n6
M  ZZC  33 o1
M  ZZC  34 o2
M  ZZC  35 o3
M  ZZC  36 o4
M  ZZC  37 h1
M  ZZC  38 h2
M  ZZC  39 h3
M  ZZC  40 h4
M  ZZC  41 h5
M  ZZC  42 h6
M  ZZC  43 h7
M  ZZC  44 h8
M  ZZC  45 h9
M  ZZC  46 h10
M  ZZC  47 h11
M  ZZC  48 h12
M  ZZC  49 h13
M  ZZC  50 h14
M  ZZC  51 h15
M  ZZC  52 h16
M  ZZC  53 h17
M  ZZC  54 h18
M  ZZC  55 h19
M  ZZC  56 h20
M  ZZC  57 h21
M  ZZC  58 h22
M  ZZC  59 h23
M  ZZC  60 h24
M  ZZM   1 37
M  ZZI   1 125
M  ZZM   2 37
M  ZZI   2 125
M  ZZM   3 37
M  ZZI   3 125
M  ZZM   4 37
M  ZZI   4 125
M  ZZM   5 37
M  ZZI   5 125
M  ZZM   6 37
M  ZZI   6 125
M  ZZM   7 37
M  ZZI   7 125
M  ZZM   8 37
M  ZZI   8 124
M  ZZM   9 37
M  ZZI   9 124
M  ZZM  10 37
M  ZZI  10 124
M  ZZM  11 2
M  ZZI  11 120
M  ZZM  12 2
M  ZZI  12 120
M  ZZM  13 3
M  ZZI  13 121
M  ZZM  14 3
M  ZZI  14 121
M  ZZM  15 2
M  ZZI  15 120
M  ZZM  16 2
M  ZZI  16 120
M  ZZM  17 3
M  ZZI  17 121
M  ZZM  18 3
M  ZZI  18 121
M  ZZM  19 2
M  ZZI  19 120
M  ZZM  20 2
M  ZZI  20 120
M  ZZM  21 3
M  ZZI  21 121
M  ZZM  22 3
M  ZZI  22 121
M  ZZM  23 1
M  ZZI  23 111
M  ZZM  24 1
M  ZZI  24 112
M  ZZM  25 1
M  ZZI  25 112
M  ZZM  26 1
M  ZZI  26 113
M  ZZM  27 9
M  ZZI  27 220
M  ZZM  28 9
M  ZZI  28 220
M  ZZM  29 10
M  ZZI  29 191
M  ZZM  30 10
M  ZZI  30 192
M  ZZM  31 10
M  ZZI  31 211
M  ZZM  32 10
M  ZZI  32 211
M  ZZM  33 7
M  ZZI  33 81
M  ZZM  34 7
M  ZZI  34 81
M  ZZM  35 7
M  ZZI  35 81
M  ZZM  36 7
M  ZZI  36 81
M  ZZM  37 5
M  ZZI  37 1
M  ZZM  38 5
M  ZZI  38 1
M  ZZM  39 5
M  ZZI  39 1
M  ZZM  40 5
M  ZZI  40 1
M  ZZM  41 5
M  ZZI  41 1
M  ZZM  42 5
M  ZZI  42 1
M  ZZM  43 5
M  ZZI  43 1
M  ZZM  44 5
M  ZZI  44 1
M  ZZM  45 5
M  ZZI  45 1
M  ZZM  46 5
M  ZZI  46 1
M  ZZM  47 5
M  ZZI  47 1
M  ZZM  48 5
M  ZZI  48 1
M  ZZM  49 5
M  ZZI  49 1
M  ZZM  50 5
M  ZZI  50 1
M  ZZM  51 5
M  ZZI  51 1
M  ZZM  52 5
M  ZZI  52 1
M  ZZM  53 5
M  ZZI  53 1
M  ZZM  54 5
M  ZZI  54 1
M  ZZM  55 5
M  ZZI  55 1
M  ZZM  56 5
M  ZZI  56 1
M  ZZM  57 5
M  ZZI  57 1
M  ZZM  58 28
M  ZZI  58 11
M  ZZM  59 28
M  ZZI  59 11
M  ZZM  60 28
M  ZZI  60 11
M  END
> <IX>
48

> <NAME>
19

> <Score>
-22.959286

> <Natom>
60

> <Nflex>
6

> <Hbond>
-4.897348

> <Hphob>
-5.958106

> <VwInt>
-41.654701

> <Dsolv>
23.38853

> <SolEl>
14.712359

> <Eintl>
7.043468

> <RecConf>
ND

> <projPath>
icm/

> <NAME_>
19

$$$$
33
  MOLSOFT 08042116513D

 58 61  0  0  1  0  0  0  0  0999 V2000
  -26.3511   19.9467  -32.4073 C   0  0  0  0  0  0  0  0  0  0  0  0
  -25.1173   20.5838  -32.4450 C   0  0  0  0  0  0  0  0  0  0  0  0
  -21.8899   15.7705  -25.5231 C   0  0  0  0  0  0  0  0  0  0  0  0
  -20.7885   13.7932  -26.3157 C   0  0  0  0  0  0  0  0  0  0  0  0
  -21.3149   15.6000  -24.2746 C   0  0  0  0  0  0  0  0  0  0  0  0
  -20.2186   13.6143  -25.0696 C   0  0  0  0  0  0  0  0  0  0  0  0
  -26.4239   18.5685  -32.2821 C   0  0  0  0  0  0  0  0  0  0  0  0
  -23.9421   19.8519  -32.3605 C   0  0  0  0  0  0  0  0  0  0  0  0
  -21.6387   14.8687  -26.5515 C   0  0  0  0  0  0  0  0  0  0  0  0
  -20.4694   14.5177  -24.0487 C   0  0  0  0  0  0  0  0  0  0  0  0
  -25.2433   17.8518  -32.1942 C   0  0  0  0  0  0  0  0  0  0  0  0
  -24.0242   18.4720  -32.2342 C   0  0  0  0  0  0  0  0  0  0  0  0
  -18.7551   19.7583  -27.1124 C   0  0  0  0  0  0  0  0  0  0  0  0
  -17.3000   21.4289  -26.7074 C   0  0  0  0  0  0  0  0  0  0  0  0
  -19.3750   20.3815  -28.1260 C   0  0  0  0  0  0  0  0  0  0  0  0
  -18.8623   21.7232  -28.5021 C   0  0  0  0  0  0  0  0  0  0  0  0
  -22.1945   15.1282  -27.8828 C   0  0  0  0  0  0  0  0  0  0  0  0
  -20.5387   19.8503  -28.7963 C   0  0  0  0  0  0  0  0  0  0  0  0
  -22.6519   14.1628  -28.7003 C   0  0  0  0  0  0  0  0  0  0  0  0
  -20.5702   18.6963  -29.4816 C   0  0  0  0  0  0  0  0  0  0  0  0
  -19.8236   14.2923  -22.7279 C   0  0  0  0  0  0  0  0  0  0  0  0
  -23.0646   14.4099  -30.1082 C   0  0  0  0  0  0  0  0  0  0  0  0
  -21.8735   18.3211  -30.0756 C   0  0  0  0  0  0  0  0  0  0  0  0
  -25.1134   16.3743  -32.0991 C   0  0  0  0  0  0  0  0  0  0  0  0
  -22.9066   17.4762  -32.1882 C   0  0  2  0  0  0  0  0  0  0  0  0
  -23.6230   16.1610  -31.8013 C   0  0  1  0  0  0  0  0  0  0  0  0
  -17.7060   20.2445  -26.3778 N   0  0  0  0  0  0  0  0  0  0  0  0
  -17.8365   22.1751  -27.7216 N   0  0  0  0  0  0  0  0  0  0  0  0
  -19.5081   15.4106  -22.0098 N   0  0  0  0  0  0  0  0  0  0  0  0
  -21.7612   17.8594  -31.3689 N   0  0  0  0  0  0  0  0  0  0  0  0
  -23.4024   15.7159  -30.4255 N   0  0  0  0  0  0  0  0  0  0  0  0
  -19.3114   22.3634  -29.4415 O   0  0  0  0  0  0  0  0  0  0  0  0
  -19.5696   13.1624  -22.3402 O   0  0  0  0  0  0  0  0  0  0  0  0
  -23.0838   13.4753  -30.8953 O   0  0  0  0  0  0  0  0  0  0  0  0
  -22.9150   18.4309  -29.4442 O   0  0  0  0  0  0  0  0  0  0  0  0
  -27.2632   20.5298  -32.4834 H   0  0  0  0  0  0  0  0  0  0  0  0
  -25.0715   21.6631  -32.5486 H   0  0  0  0  0  0  0  0  0  0  0  0
  -22.5452   16.6209  -25.6895 H   0  0  0  0  0  0  0  0  0  0  0  0
  -20.5425   13.0916  -27.1070 H   0  0  0  0  0  0  0  0  0  0  0  0
  -21.5473   16.3102  -23.4874 H   0  0  0  0  0  0  0  0  0  0  0  0
  -19.5585   12.7705  -24.9034 H   0  0  0  0  0  0  0  0  0  0  0  0
  -27.3846   18.0639  -32.2618 H   0  0  0  0  0  0  0  0  0  0  0  0
  -22.9800   20.3533  -32.3992 H   0  0  0  0  0  0  0  0  0  0  0  0
  -19.1098   18.7845  -26.7884 H   0  0  0  0  0  0  0  0  0  0  0  0
  -16.4733   21.9309  -26.1783 H   0  0  0  0  0  0  0  0  0  0  0  0
  -22.1722   16.1692  -28.1774 H   0  0  0  0  0  0  0  0  0  0  0  0
  -21.4256   20.4765  -28.7439 H   0  0  0  0  0  0  0  0  0  0  0  0
  -22.6480   13.1189  -28.4075 H   0  0  0  0  0  0  0  0  0  0  0  0
  -19.7144   18.0442  -29.6194 H   0  0  0  0  0  0  0  0  0  0  0  0
  -25.7735   15.9769  -31.3295 H   0  0  0  0  0  0  0  0  0  0  0  0
  -25.3913   15.9349  -33.0556 H   0  0  0  0  0  0  0  0  0  0  0  0
  -22.5233   17.3739  -33.2092 H   0  0  0  0  0  0  0  0  0  0  0  0
  -23.2274   15.3692  -32.4357 H   0  0  0  0  0  0  0  0  0  0  0  0
  -17.4730   23.0980  -27.9259 H   0  0  0  0  0  0  0  0  0  0  0  0
  -19.0669   15.2875  -21.1107 H   0  0  0  0  0  0  0  0  0  0  0  0
  -19.5584   16.3573  -22.3703 H   0  0  0  0  0  0  0  0  0  0  0  0
  -20.8428   17.7394  -31.7809 H   0  0  0  0  0  0  0  0  0  0  0  0
  -23.5184   16.4119  -29.6946 H   0  0  0  0  0  0  0  0  0  0  0  0
  1 36  1  0  0  0  0
  1  2  1  0  0  0  0
  1  7  2  0  0  0  0
  2 37  1  0  0  0  0
  2  8  2  0  0  0  0
  3  9  1  0  0  0  0
  3 38  1  0  0  0  0
  3  5  2  0  0  0  0
  4  6  1  0  0  0  0
  4 39  1  0  0  0  0
  4  9  2  0  0  0  0
  5 40  1  0  0  0  0
  5 10  1  0  0  0  0
  6 10  2  0  0  0  0
  6 41  1  0  0  0  0
  7 11  1  0  0  0  0
  7 42  1  0  0  0  0
  8 43  1  0  0  0  0
  8 12  1  0  0  0  0
  9 17  1  0  0  0  0
 10 21  1  0  0  0  0
 11 12  2  0  0  0  0
 11 24  1  0  0  0  0
 25 12  1  0  0  0  0
 13 15  2  0  0  0  0
 13 44  1  0  0  0  0
 13 27  1  0  0  0  0
 14 27  2  0  0  0  0
 14 45  1  0  0  0  0
 14 28  1  0  0  0  0
 15 18  1  0  0  0  0
 15 16  1  0  0  0  0
 16 28  1  0  0  0  0
 16 32  2  0  0  0  0
 17 19  2  0  0  0  0
 17 46  1  0  0  0  0
 18 20  2  0  0  0  0
 18 47  1  0  0  0  0
 19 22  1  0  0  0  0
 19 48  1  0  0  0  0
 20 23  1  0  0  0  0
 20 49  1  0  0  0  0
 21 33  2  0  0  0  0
 21 29  1  0  0  0  0
 22 31  1  0  0  0  0
 22 34  2  0  0  0  0
 23 30  1  0  0  0  0
 23 35  2  0  0  0  0
 24 50  1  0  0  0  0
 24 51  1  0  0  0  0
 26 24  1  0  0  0  0
 25 26  1  0  0  0  0
 25 52  1  0  0  0  0
 25 30  1  0  0  0  0
 26 53  1  0  0  0  0
 26 31  1  0  0  0  0
 28 54  1  0  0  0  0
 29 55  1  0  0  0  0
 29 56  1  0  0  0  0
 30 57  1  0  0  0  0
 31 58  1  0  0  0  0
M  ZZC   1 c1
M  ZZC   2 c2
M  ZZC   3 c3
M  ZZC   4 c4
M  ZZC   5 c5
M  ZZC   6 c6
M  ZZC   7 c7
M  ZZC   8 c8
M  ZZC   9 c9
M  ZZC  10 c10
M  ZZC  11 c11
M  ZZC  12 c12
M  ZZC  13 c13
M  ZZC  14 c14
M  ZZC  15 c15
M  ZZC  16 c16
M  ZZC  17 c17
M  ZZC  18 c18
M  ZZC  19 c19
M  ZZC  20 c20
M  ZZC  21 c21
M  ZZC  22 c22
M  ZZC  23 c23
M  ZZC  24 c24
M  ZZC  25 c25
M  ZZC  26 c26
M  ZZC  27 n1
M  ZZC  28 n2
M  ZZC  29 n3
M  ZZC  30 n4
M  ZZC  31 n5
M  ZZC  32 o1
M  ZZC  33 o2
M  ZZC  34 o3
M  ZZC  35 o4
M  ZZC  36 h1
M  ZZC  37 h2
M  ZZC  38 h3
M  ZZC  39 h4
M  ZZC  40 h5
M  ZZC  41 h6
M  ZZC  42 h7
M  ZZC  43 h8
M  ZZC  44 h9
M  ZZC  45 h10
M  ZZC  46 h11
M  ZZC  47 h12
M  ZZC  48 h13
M  ZZC  49 h14
M  ZZC  50 h15
M  ZZC  51 h16
M  ZZC  52 h17
M  ZZC  53 h18
M  ZZC  54 h19
M  ZZC  55 h20
M  ZZC  56 h21
M  ZZC  57 h22
M  ZZC  58 h23
M  ZZM   1 37
M  ZZI   1 125
M  ZZM   2 37
M  ZZI   2 125
M  ZZM   3 37
M  ZZI   3 125
M  ZZM   4 37
M  ZZI   4 125
M  ZZM   5 37
M  ZZI   5 125
M  ZZM   6 37
M  ZZI   6 125
M  ZZM   7 37
M  ZZI   7 125
M  ZZM   8 37
M  ZZI   8 125
M  ZZM   9 37
M  ZZI   9 124
M  ZZM  10 37
M  ZZI  10 124
M  ZZM  11 37
M  ZZI  11 124
M  ZZM  12 37
M  ZZI  12 124
M  ZZM  13 2
M  ZZI  13 120
M  ZZM  14 3
M  ZZI  14 121
M  ZZM  15 2
M  ZZI  15 120
M  ZZM  16 3
M  ZZI  16 121
M  ZZM  17 2
M  ZZI  17 120
M  ZZM  18 2
M  ZZI  18 120
M  ZZM  19 2
M  ZZI  19 120
M  ZZM  20 2
M  ZZI  20 120
M  ZZM  21 3
M  ZZI  21 121
M  ZZM  22 3
M  ZZI  22 121
M  ZZM  23 3
M  ZZI  23 121
M  ZZM  24 1
M  ZZI  24 112
M  ZZM  25 1
M  ZZI  25 113
M  ZZM  26 1
M  ZZI  26 113
M  ZZM  27 9
M  ZZI  27 220
M  ZZM  28 10
M  ZZI  28 191
M  ZZM  29 10
M  ZZI  29 212
M  ZZM  30 10
M  ZZI  30 211
M  ZZM  31 10
M  ZZI  31 211
M  ZZM  32 7
M  ZZI  32 81
M  ZZM  33 7
M  ZZI  33 81
M  ZZM  34 7
M  ZZI  34 81
M  ZZM  35 7
M  ZZI  35 81
M  ZZM  36 5
M  ZZI  36 1
M  ZZM  37 5
M  ZZI  37 1
M  ZZM  38 5
M  ZZI  38 1
M  ZZM  39 5
M  ZZI  39 1
M  ZZM  40 5
M  ZZI  40 1
M  ZZM  41 5
M  ZZI  41 1
M  ZZM  42 5
M  ZZI  42 1
M  ZZM  43 5
M  ZZI  43 1
M  ZZM  44 5
M  ZZI  44 1
M  ZZM  45 5
M  ZZI  45 1
M  ZZM  46 5
M  ZZI  46 1
M  ZZM  47 5
M  ZZI  47 1
M  ZZM  48 5
M  ZZI  48 1
M  ZZM  49 5
M  ZZI  49 1
M  ZZM  50 5
M  ZZI  50 1
M  ZZM  51 5
M  ZZI  51 1
M  ZZM  52 5
M  ZZI  52 1
M  ZZM  53 5
M  ZZI  53 1
M  ZZM  54 28
M  ZZI  54 11
M  ZZM  55 28
M  ZZI  55 11
M  ZZM  56 28
M  ZZI  56 11
M  ZZM  57 28
M  ZZI  57 11
M  ZZM  58 28
M  ZZI  58 11
M  END
> <IX>
49

> <NAME>
33

> <Score>
-35.050954

> <Natom>
58

> <Nflex>
2

> <Hbond>
-9.594754

> <Hphob>
-6.16348

> <VwInt>
-38.694047

> <Dsolv>
23.062351

> <SolEl>
11.14378

> <Eintl>
10.326154

> <RecConf>
ND

> <projPath>
icm/

> <NAME_>
33

$$$$
55
  MOLSOFT 08042116543D

 60 63  0  0  1  0  0  0  0  0999 V2000
  -20.9142   15.1172  -22.2805 C   0  0  0  0  0  0  0  0  0  0  0  0
  -19.8949   14.3122  -22.7501 C   0  0  0  0  0  0  0  0  0  0  0  0
  -21.8710   15.5986  -23.1570 C   0  0  0  0  0  0  0  0  0  0  0  0
  -19.8351   13.9892  -24.0944 C   0  0  0  0  0  0  0  0  0  0  0  0
  -22.7630   15.7516  -25.4038 C   0  0  0  0  0  0  0  0  0  0  0  0
  -22.6810   15.4456  -26.7493 C   0  0  0  0  0  0  0  0  0  0  0  0
  -20.7064   14.1720  -26.3465 C   0  0  0  0  0  0  0  0  0  0  0  0
  -21.8108   15.2813  -24.5114 C   0  0  0  0  0  0  0  0  0  0  0  0
  -20.7823   14.4748  -24.9889 C   0  0  0  0  0  0  0  0  0  0  0  0
  -21.6329   14.6786  -27.2608 C   0  0  0  0  0  0  0  0  0  0  0  0
  -23.8275   19.1987  -32.3077 C   0  0  0  0  0  0  0  0  0  0  0  0
  -18.3656   20.3978  -26.4351 C   0  0  0  0  0  0  0  0  0  0  0  0
  -25.6829   20.1608  -33.1405 C   0  0  0  0  0  0  0  0  0  0  0  0
  -24.3593   17.9754  -32.1434 C   0  0  0  0  0  0  0  0  0  0  0  0
  -18.8125   20.5374  -27.6907 C   0  0  0  0  0  0  0  0  0  0  0  0
  -25.8054   17.8526  -32.5036 C   0  0  0  0  0  0  0  0  0  0  0  0
  -18.5071   21.8331  -28.3412 C   0  0  0  0  0  0  0  0  0  0  0  0
  -17.2358   22.3511  -26.3576 C   0  0  0  0  0  0  0  0  0  0  0  0
  -23.5708   16.8938  -31.5667 C   0  0  0  0  0  0  0  0  0  0  0  0
  -19.5886   19.5162  -28.3577 C   0  0  0  0  0  0  0  0  0  0  0  0
  -23.9490   15.6157  -31.3834 C   0  0  0  0  0  0  0  0  0  0  0  0
  -19.1805   18.2368  -28.3959 C   0  0  0  0  0  0  0  0  0  0  0  0
  -23.1075   14.6219  -30.6540 C   0  0  0  0  0  0  0  0  0  0  0  0
  -20.0391   17.1816  -28.9768 C   0  0  0  0  0  0  0  0  0  0  0  0
  -20.0729   14.6759  -29.3008 C   0  0  0  0  0  0  0  0  0  0  0  0
  -21.4950   14.3970  -28.7529 C   0  0  2  0  0  0  0  0  0  0  0  0
  -24.4467   20.3183  -32.8003 N   0  0  0  0  0  0  0  0  0  0  0  0
  -17.5845   21.2760  -25.7362 N   0  0  0  0  0  0  0  0  0  0  0  0
  -26.3678   18.9861  -33.0138 N   0  0  0  0  0  0  0  0  0  0  0  0
  -17.6512   22.6187  -27.6260 N   0  0  0  0  0  0  0  0  0  0  0  0
  -16.4427   23.2905  -25.7859 N   0  0  0  0  0  0  0  0  0  0  0  0
  -19.4469   15.9364  -28.9028 N   0  0  0  0  0  0  0  0  0  0  0  0
  -22.4598   15.1399  -29.5534 N   0  0  0  0  0  0  0  0  0  0  0  0
  -26.4554   16.8331  -32.3465 O   0  0  0  0  0  0  0  0  0  0  0  0
  -18.9985   22.1839  -29.4051 O   0  0  0  0  0  0  0  0  0  0  0  0
  -23.0622   13.4481  -30.9900 O   0  0  0  0  0  0  0  0  0  0  0  0
  -21.1483   17.4356  -29.4182 O   0  0  0  0  0  0  0  0  0  0  0  0
  -20.9641   15.3719  -21.2265 H   0  0  0  0  0  0  0  0  0  0  0  0
  -19.1417   13.9345  -22.0655 H   0  0  0  0  0  0  0  0  0  0  0  0
  -22.6652   16.2298  -22.7708 H   0  0  0  0  0  0  0  0  0  0  0  0
  -19.0352   13.3486  -24.4426 H   0  0  0  0  0  0  0  0  0  0  0  0
  -23.5846   16.3727  -25.0612 H   0  0  0  0  0  0  0  0  0  0  0  0
  -23.4580   15.8364  -27.3974 H   0  0  0  0  0  0  0  0  0  0  0  0
  -19.8955   13.5412  -26.6984 H   0  0  0  0  0  0  0  0  0  0  0  0
  -22.7894   19.3672  -32.0363 H   0  0  0  0  0  0  0  0  0  0  0  0
  -18.6224   19.5001  -25.8826 H   0  0  0  0  0  0  0  0  0  0  0  0
  -26.2812   20.9861  -33.5607 H   0  0  0  0  0  0  0  0  0  0  0  0
  -22.5782   17.1886  -31.2492 H   0  0  0  0  0  0  0  0  0  0  0  0
  -20.5235   19.8289  -28.8141 H   0  0  0  0  0  0  0  0  0  0  0  0
  -24.8858   15.2396  -31.7694 H   0  0  0  0  0  0  0  0  0  0  0  0
  -18.2368   17.9298  -27.9661 H   0  0  0  0  0  0  0  0  0  0  0  0
  -19.3846   13.8890  -28.9754 H   0  0  0  0  0  0  0  0  0  0  0  0
  -20.0748   14.6557  -30.3923 H   0  0  0  0  0  0  0  0  0  0  0  0
  -21.7124   13.3341  -28.9084 H   0  0  0  0  0  0  0  0  0  0  0  0
  -27.3384   18.9342  -33.2932 H   0  0  0  0  0  0  0  0  0  0  0  0
  -17.3941   23.5019  -28.0391 H   0  0  0  0  0  0  0  0  0  0  0  0
  -16.1778   24.1369  -26.2751 H   0  0  0  0  0  0  0  0  0  0  0  0
  -16.1522   23.1884  -24.8162 H   0  0  0  0  0  0  0  0  0  0  0  0
  -18.4664   15.8989  -28.6510 H   0  0  0  0  0  0  0  0  0  0  0  0
  -22.5328   16.1355  -29.3661 H   0  0  0  0  0  0  0  0  0  0  0  0
  1 38  1  0  0  0  0
  1  2  1  0  0  0  0
  1  3  2  0  0  0  0
  2 39  1  0  0  0  0
  2  4  2  0  0  0  0
  3  8  1  0  0  0  0
  3 40  1  0  0  0  0
  4 41  1  0  0  0  0
  4  9  1  0  0  0  0
  5  6  2  0  0  0  0
  5 42  1  0  0  0  0
  5  8  1  0  0  0  0
  6 10  1  0  0  0  0
  6 43  1  0  0  0  0
  7  9  1  0  0  0  0
  7 44  1  0  0  0  0
  7 10  2  0  0  0  0
  8  9  2  0  0  0  0
 26 10  1  0  0  0  0
 11 14  2  0  0  0  0
 11 45  1  0  0  0  0
 11 27  1  0  0  0  0
 12 15  2  0  0  0  0
 12 46  1  0  0  0  0
 12 28  1  0  0  0  0
 13 27  2  0  0  0  0
 13 47  1  0  0  0  0
 13 29  1  0  0  0  0
 14 19  1  0  0  0  0
 14 16  1  0  0  0  0
 15 20  1  0  0  0  0
 15 17  1  0  0  0  0
 16 29  1  0  0  0  0
 16 34  2  0  0  0  0
 17 30  1  0  0  0  0
 17 35  2  0  0  0  0
 18 28  2  0  0  0  0
 18 31  1  0  0  0  0
 18 30  1  0  0  0  0
 19 21  2  0  0  0  0
 19 48  1  0  0  0  0
 20 22  2  0  0  0  0
 20 49  1  0  0  0  0
 21 23  1  0  0  0  0
 21 50  1  0  0  0  0
 22 24  1  0  0  0  0
 22 51  1  0  0  0  0
 23 33  1  0  0  0  0
 23 36  2  0  0  0  0
 24 32  1  0  0  0  0
 24 37  2  0  0  0  0
 26 25  1  0  0  0  0
 25 52  1  0  0  0  0
 25 53  1  0  0  0  0
 25 32  1  0  0  0  0
 26 54  1  0  0  0  0
 26 33  1  0  0  0  0
 29 55  1  0  0  0  0
 30 56  1  0  0  0  0
 31 57  1  0  0  0  0
 31 58  1  0  0  0  0
 32 59  1  0  0  0  0
 33 60  1  0  0  0  0
M  ZZC   1 c1
M  ZZC   2 c2
M  ZZC   3 c3
M  ZZC   4 c4
M  ZZC   5 c5
M  ZZC   6 c6
M  ZZC   7 c7
M  ZZC   8 c8
M  ZZC   9 c9
M  ZZC  10 c10
M  ZZC  11 c11
M  ZZC  12 c12
M  ZZC  13 c13
M  ZZC  14 c14
M  ZZC  15 c15
M  ZZC  16 c16
M  ZZC  17 c17
M  ZZC  18 c18
M  ZZC  19 c19
M  ZZC  20 c20
M  ZZC  21 c21
M  ZZC  22 c22
M  ZZC  23 c23
M  ZZC  24 c24
M  ZZC  25 c25
M  ZZC  26 c26
M  ZZC  27 n1
M  ZZC  28 n2
M  ZZC  29 n3
M  ZZC  30 n4
M  ZZC  31 n5
M  ZZC  32 n6
M  ZZC  33 n7
M  ZZC  34 o1
M  ZZC  35 o2
M  ZZC  36 o3
M  ZZC  37 o4
M  ZZC  38 h1
M  ZZC  39 h2
M  ZZC  40 h3
M  ZZC  41 h4
M  ZZC  42 h5
M  ZZC  43 h6
M  ZZC  44 h7
M  ZZC  45 h8
M  ZZC  46 h9
M  ZZC  47 h10
M  ZZC  48 h11
M  ZZC  49 h12
M  ZZC  50 h13
M  ZZC  51 h14
M  ZZC  52 h15
M  ZZC  53 h16
M  ZZC  54 h17
M  ZZC  55 h18
M  ZZC  56 h19
M  ZZC  57 h20
M  ZZC  58 h21
M  ZZC  59 h22
M  ZZC  60 h23
M  ZZM   1 37
M  ZZI   1 125
M  ZZM   2 37
M  ZZI   2 125
M  ZZM   3 37
M  ZZI   3 125
M  ZZM   4 37
M  ZZI   4 125
M  ZZM   5 37
M  ZZI   5 125
M  ZZM   6 37
M  ZZI   6 125
M  ZZM   7 37
M  ZZI   7 125
M  ZZM   8 37
M  ZZI   8 124
M  ZZM   9 37
M  ZZI   9 124
M  ZZM  10 37
M  ZZI  10 124
M  ZZM  11 2
M  ZZI  11 120
M  ZZM  12 2
M  ZZI  12 120
M  ZZM  13 3
M  ZZI  13 121
M  ZZM  14 2
M  ZZI  14 120
M  ZZM  15 2
M  ZZI  15 120
M  ZZM  16 3
M  ZZI  16 121
M  ZZM  17 3
M  ZZI  17 121
M  ZZM  18 3
M  ZZI  18 121
M  ZZM  19 2
M  ZZI  19 120
M  ZZM  20 2
M  ZZI  20 120
M  ZZM  21 2
M  ZZI  21 120
M  ZZM  22 2
M  ZZI  22 120
M  ZZM  23 3
M  ZZI  23 121
M  ZZM  24 3
M  ZZI  24 121
M  ZZM  25 1
M  ZZI  25 112
M  ZZM  26 1
M  ZZI  26 113
M  ZZM  27 9
M  ZZI  27 220
M  ZZM  28 9
M  ZZI  28 220
M  ZZM  29 10
M  ZZI  29 191
M  ZZM  30 10
M  ZZI  30 191
M  ZZM  31 40
M  ZZI  31 224
M  ZZM  32 10
M  ZZI  32 211
M  ZZM  33 10
M  ZZI  33 211
M  ZZM  34 7
M  ZZI  34 81
M  ZZM  35 7
M  ZZI  35 81
M  ZZM  36 7
M  ZZI  36 81
M  ZZM  37 7
M  ZZI  37 81
M  ZZM  38 5
M  ZZI  38 1
M  ZZM  39 5
M  ZZI  39 1
M  ZZM  40 5
M  ZZI  40 1
M  ZZM  41 5
M  ZZI  41 1
M  ZZM  42 5
M  ZZI  42 1
M  ZZM  43 5
M  ZZI  43 1
M  ZZM  44 5
M  ZZI  44 1
M  ZZM  45 5
M  ZZI  45 1
M  ZZM  46 5
M  ZZI  46 1
M  ZZM  47 5
M  ZZI  47 1
M  ZZM  48 5
M  ZZI  48 1
M  ZZM  49 5
M  ZZI  49 1
M  ZZM  50 5
M  ZZI  50 1
M  ZZM  51 5
M  ZZI  51 1
M  ZZM  52 5
M  ZZI  52 1
M  ZZM  53 5
M  ZZI  53 1
M  ZZM  54 5
M  ZZI  54 1
M  ZZM  55 28
M  ZZI  55 11
M  ZZM  56 28
M  ZZI  56 11
M  ZZM  57 28
M  ZZI  57 11
M  ZZM  58 28
M  ZZI  58 11
M  ZZM  59 28
M  ZZI  59 11
M  ZZM  60 28
M  ZZI  60 11
M  END
> <IX>
50

> <NAME>
55

> <Score>
-38.671786

> <Natom>
60

> <Nflex>
4

> <Hbond>
-9.885887

> <Hphob>
-6.410135

> <VwInt>
-46.318769

> <Dsolv>
24.885216

> <SolEl>
16.09781

> <Eintl>
8.774333

> <RecConf>
ND

> <projPath>
icm/

> <NAME_>
55

$$$$
15
  MOLSOFT 08042116563D

 53 55  0  0  1  0  0  0  0  0999 V2000
  -21.9198   12.4954  -29.5038 C   0  0  0  0  0  0  0  0  0  0  0  0
  -20.5930   12.8638  -29.5059 C   0  0  0  0  0  0  0  0  0  0  0  0
  -22.8269   13.2417  -28.7856 C   0  0  0  0  0  0  0  0  0  0  0  0
  -20.1692   13.9741  -28.8072 C   0  0  0  0  0  0  0  0  0  0  0  0
  -22.4190   14.3624  -28.0913 C   0  0  0  0  0  0  0  0  0  0  0  0
  -21.0857   14.7588  -28.1091 C   0  0  0  0  0  0  0  0  0  0  0  0
  -19.1851   22.5605  -25.6783 C   0  0  0  0  0  0  0  0  0  0  0  0
  -18.1512   21.9875  -26.3122 C   0  0  0  0  0  0  0  0  0  0  0  0
  -16.8144   22.5553  -26.0104 C   0  0  0  0  0  0  0  0  0  0  0  0
  -22.0953   14.8064  -20.7224 C   0  0  0  0  0  0  0  0  0  0  0  0
  -17.9753   24.1173  -24.5833 C   0  0  0  0  0  0  0  0  0  0  0  0
  -20.6346   13.6461  -21.9536 C   0  0  0  0  0  0  0  0  0  0  0  0
  -18.2892   20.7981  -27.1250 C   0  0  0  0  0  0  0  0  0  0  0  0
  -19.3017   20.5960  -27.9851 C   0  0  0  0  0  0  0  0  0  0  0  0
  -19.4366   19.2969  -28.6785 C   0  0  0  0  0  0  0  0  0  0  0  0
  -20.8071   15.6093  -24.9320 C   0  0  0  0  0  0  0  0  0  0  0  0
  -21.6108   15.7617  -21.7921 C   0  0  0  0  0  0  0  0  0  0  0  0
  -19.9552   15.3125  -23.6994 C   0  0  0  0  0  0  0  0  0  0  0  0
  -19.7527   16.8791  -28.2868 C   0  0  0  0  0  0  0  0  0  0  0  0
  -20.6672   16.0189  -27.3898 C   0  0  2  0  0  0  0  0  0  0  0  0
  -19.1433   23.6323  -24.8318 N   0  0  0  0  0  0  0  0  0  0  0  0
  -16.8408   23.6076  -25.1394 N   0  0  0  0  0  0  0  0  0  0  0  0
  -21.4603   13.6143  -20.8910 N   0  0  0  0  0  0  0  0  0  0  0  0
  -20.7119   14.8827  -22.5215 N   0  0  0  0  0  0  0  0  0  0  0  0
  -17.8059   25.1663  -23.7438 N   0  0  0  0  0  0  0  0  0  0  0  0
  -19.5997   18.2403  -27.8067 N   0  0  0  0  0  0  0  0  0  0  0  0
  -20.0635   15.6945  -26.0992 N   0  0  0  0  0  0  0  0  0  0  0  0
  -15.7802   22.1039  -26.4808 O   0  0  0  0  0  0  0  0  0  0  0  0
  -22.9126   15.0668  -19.8528 O   0  0  0  0  0  0  0  0  0  0  0  0
  -19.9309   12.7234  -22.3198 O   0  0  0  0  0  0  0  0  0  0  0  0
  -19.4472   19.2255  -29.8979 O   0  0  0  0  0  0  0  0  0  0  0  0
  -22.0113   15.8199  -24.8827 O   0  0  0  0  0  0  0  0  0  0  0  0
  -22.2423   11.6168  -30.0490 H   0  0  0  0  0  0  0  0  0  0  0  0
  -19.8783   12.2802  -30.0633 H   0  0  0  0  0  0  0  0  0  0  0  0
  -23.8644   12.9467  -28.7650 H   0  0  0  0  0  0  0  0  0  0  0  0
  -19.1136   14.2264  -28.8321 H   0  0  0  0  0  0  0  0  0  0  0  0
  -23.1577   14.9352  -27.5379 H   0  0  0  0  0  0  0  0  0  0  0  0
  -20.1804   22.1489  -25.8014 H   0  0  0  0  0  0  0  0  0  0  0  0
  -17.5222   20.0419  -26.9910 H   0  0  0  0  0  0  0  0  0  0  0  0
  -20.0560   21.3407  -28.2088 H   0  0  0  0  0  0  0  0  0  0  0  0
  -22.4401   16.0942  -22.4226 H   0  0  0  0  0  0  0  0  0  0  0  0
  -21.0502   16.5957  -21.3563 H   0  0  0  0  0  0  0  0  0  0  0  0
  -19.2285   14.5337  -23.9539 H   0  0  0  0  0  0  0  0  0  0  0  0
  -19.4010   16.2163  -23.4330 H   0  0  0  0  0  0  0  0  0  0  0  0
  -18.7442   16.4642  -28.3649 H   0  0  0  0  0  0  0  0  0  0  0  0
  -20.1530   16.9239  -29.3058 H   0  0  0  0  0  0  0  0  0  0  0  0
  -21.5686   16.6090  -27.1868 H   0  0  0  0  0  0  0  0  0  0  0  0
  -15.9584   24.0197  -24.8771 H   0  0  0  0  0  0  0  0  0  0  0  0
  -21.5770   12.8023  -20.3002 H   0  0  0  0  0  0  0  0  0  0  0  0
  -16.8870   25.5423  -23.5304 H   0  0  0  0  0  0  0  0  0  0  0  0
  -18.6151   25.5630  -23.2767 H   0  0  0  0  0  0  0  0  0  0  0  0
  -19.5618   18.4035  -26.8064 H   0  0  0  0  0  0  0  0  0  0  0  0
  -19.1081   15.3570  -26.0962 H   0  0  0  0  0  0  0  0  0  0  0  0
  1 33  1  0  0  0  0
  1  2  1  0  0  0  0
  1  3  2  0  0  0  0
  2 34  1  0  0  0  0
  2  4  2  0  0  0  0
  3  5  1  0  0  0  0
  3 35  1  0  0  0  0
  4 36  1  0  0  0  0
  4  6  1  0  0  0  0
  5  6  2  0  0  0  0
  5 37  1  0  0  0  0
 20  6  1  0  0  0  0
  7  8  2  0  0  0  0
  7 38  1  0  0  0  0
  7 21  1  0  0  0  0
  8 13  1  0  0  0  0
  8  9  1  0  0  0  0
  9 22  1  0  0  0  0
  9 28  2  0  0  0  0
 10 23  1  0  0  0  0
 10 29  2  0  0  0  0
 10 17  1  0  0  0  0
 11 21  2  0  0  0  0
 11 25  1  0  0  0  0
 11 22  1  0  0  0  0
 12 24  1  0  0  0  0
 12 30  2  0  0  0  0
 12 23  1  0  0  0  0
 13 14  2  0  0  0  0
 13 39  1  0  0  0  0
 14 15  1  0  0  0  0
 14 40  1  0  0  0  0
 15 26  1  0  0  0  0
 15 31  2  0  0  0  0
 16 27  1  0  0  0  0
 16 32  2  0  0  0  0
 16 18  1  0  0  0  0
 17 42  1  0  0  0  0
 17 41  1  0  0  0  0
 17 24  1  0  0  0  0
 18 43  1  0  0  0  0
 18 44  1  0  0  0  0
 18 24  1  0  0  0  0
 20 19  1  0  0  0  0
 19 45  1  0  0  0  0
 19 46  1  0  0  0  0
 19 26  1  0  0  0  0
 20 47  1  0  0  0  0
 20 27  1  0  0  0  0
 22 48  1  0  0  0  0
 23 49  1  0  0  0  0
 25 50  1  0  0  0  0
 25 51  1  0  0  0  0
 26 52  1  0  0  0  0
 27 53  1  0  0  0  0
M  ZZC   1 c1
M  ZZC   2 c2
M  ZZC   3 c3
M  ZZC   4 c4
M  ZZC   5 c5
M  ZZC   6 c6
M  ZZC   7 c7
M  ZZC   8 c8
M  ZZC   9 c9
M  ZZC  10 c10
M  ZZC  11 c11
M  ZZC  12 c12
M  ZZC  13 c13
M  ZZC  14 c14
M  ZZC  15 c15
M  ZZC  16 c16
M  ZZC  17 c17
M  ZZC  18 c18
M  ZZC  19 c19
M  ZZC  20 c20
M  ZZC  21 n1
M  ZZC  22 n2
M  ZZC  23 n3
M  ZZC  24 n4
M  ZZC  25 n5
M  ZZC  26 n6
M  ZZC  27 n7
M  ZZC  28 o1
M  ZZC  29 o2
M  ZZC  30 o3
M  ZZC  31 o4
M  ZZC  32 o5
M  ZZC  33 h1
M  ZZC  34 h2
M  ZZC  35 h3
M  ZZC  36 h4
M  ZZC  37 h5
M  ZZC  38 h6
M  ZZC  39 h7
M  ZZC  40 h8
M  ZZC  41 h9
M  ZZC  42 h10
M  ZZC  43 h11
M  ZZC  44 h12
M  ZZC  45 h13
M  ZZC  46 h14
M  ZZC  47 h15
M  ZZC  48 h16
M  ZZC  49 h17
M  ZZC  50 h18
M  ZZC  51 h19
M  ZZC  52 h20
M  ZZC  53 h21
M  ZZM   1 37
M  ZZI   1 125
M  ZZM   2 37
M  ZZI   2 125
M  ZZM   3 37
M  ZZI   3 125
M  ZZM   4 37
M  ZZI   4 125
M  ZZM   5 37
M  ZZI   5 125
M  ZZM   6 37
M  ZZI   6 124
M  ZZM   7 2
M  ZZI   7 120
M  ZZM   8 2
M  ZZI   8 120
M  ZZM   9 3
M  ZZI   9 121
M  ZZM  10 3
M  ZZI  10 121
M  ZZM  11 3
M  ZZI  11 121
M  ZZM  12 3
M  ZZI  12 121
M  ZZM  13 2
M  ZZI  13 120
M  ZZM  14 2
M  ZZI  14 120
M  ZZM  15 3
M  ZZI  15 121
M  ZZM  16 3
M  ZZI  16 121
M  ZZM  17 1
M  ZZI  17 112
M  ZZM  18 1
M  ZZI  18 112
M  ZZM  19 1
M  ZZI  19 112
M  ZZM  20 1
M  ZZI  20 113
M  ZZM  21 9
M  ZZI  21 220
M  ZZM  22 10
M  ZZI  22 191
M  ZZM  23 10
M  ZZI  23 191
M  ZZM  24 10
M  ZZI  24 192
M  ZZM  25 40
M  ZZI  25 224
M  ZZM  26 10
M  ZZI  26 211
M  ZZM  27 10
M  ZZI  27 211
M  ZZM  28 7
M  ZZI  28 81
M  ZZM  29 7
M  ZZI  29 81
M  ZZM  30 7
M  ZZI  30 81
M  ZZM  31 7
M  ZZI  31 81
M  ZZM  32 7
M  ZZI  32 81
M  ZZM  33 5
M  ZZI  33 1
M  ZZM  34 5
M  ZZI  34 1
M  ZZM  35 5
M  ZZI  35 1
M  ZZM  36 5
M  ZZI  36 1
M  ZZM  37 5
M  ZZI  37 1
M  ZZM  38 5
M  ZZI  38 1
M  ZZM  39 5
M  ZZI  39 1
M  ZZM  40 5
M  ZZI  40 1
M  ZZM  41 5
M  ZZI  41 1
M  ZZM  42 5
M  ZZI  42 1
M  ZZM  43 5
M  ZZI  43 1
M  ZZM  44 5
M  ZZI  44 1
M  ZZM  45 5
M  ZZI  45 1
M  ZZM  46 5
M  ZZI  46 1
M  ZZM  47 5
M  ZZI  47 1
M  ZZM  48 28
M  ZZI  48 11
M  ZZM  49 28
M  ZZI  49 11
M  ZZM  50 28
M  ZZI  50 11
M  ZZM  51 28
M  ZZI  51 11
M  ZZM  52 28
M  ZZI  52 11
M  ZZM  53 28
M  ZZI  53 11
M  END
> <IX>
51

> <NAME>
15

> <Score>
-34.611027

> <Natom>
53

> <Nflex>
6

> <Hbond>
-7.410171

> <Hphob>
-5.221286

> <VwInt>
-42.747169

> <Dsolv>
22.457666

> <SolEl>
6.387589

> <Eintl>
9.538462

> <RecConf>
ND

> <projPath>
icm/

> <NAME_>
15

$$$$
14
  MOLSOFT 08042116583D

 61 64  0  0  1  0  0  0  0  0999 V2000
  -22.1244   13.0966  -29.8113 C   0  0  0  0  0  0  0  0  0  0  0  0
  -22.9874   14.1737  -29.7557 C   0  0  0  0  0  0  0  0  0  0  0  0
  -21.1226   12.9644  -28.8744 C   0  0  0  0  0  0  0  0  0  0  0  0
  -22.8508   15.1160  -28.7503 C   0  0  0  0  0  0  0  0  0  0  0  0
  -20.0001   13.7465  -26.8940 C   0  0  0  0  0  0  0  0  0  0  0  0
  -19.8567   14.6855  -25.8937 C   0  0  0  0  0  0  0  0  0  0  0  0
  -21.6998   15.9267  -26.7758 C   0  0  0  0  0  0  0  0  0  0  0  0
  -20.9887   13.8932  -27.8529 C   0  0  0  0  0  0  0  0  0  0  0  0
  -21.8546   14.9822  -27.7874 C   0  0  0  0  0  0  0  0  0  0  0  0
  -20.6757   15.8076  -25.8347 C   0  0  0  0  0  0  0  0  0  0  0  0
  -19.3927   22.5709  -24.9818 C   0  0  0  0  0  0  0  0  0  0  0  0
  -19.0777   21.0405  -19.1854 C   0  0  0  0  0  0  0  0  0  0  0  0
  -20.3787   20.7474  -19.0370 C   0  0  0  0  0  0  0  0  0  0  0  0
  -19.1076   21.5116  -25.7499 C   0  0  0  0  0  0  0  0  0  0  0  0
  -18.3597   23.6030  -24.7568 C   0  0  0  0  0  0  0  0  0  0  0  0
  -21.0474   21.3408  -17.8484 C   0  0  0  0  0  0  0  0  0  0  0  0
  -18.9006   22.3035  -17.3322 C   0  0  0  0  0  0  0  0  0  0  0  0
  -16.8352   22.2726  -26.0995 C   0  0  0  0  0  0  0  0  0  0  0  0
  -21.1343   19.9583  -19.9927 C   0  0  0  0  0  0  0  0  0  0  0  0
  -20.6200   18.9144  -20.6645 C   0  0  0  0  0  0  0  0  0  0  0  0
  -21.4296   18.1880  -21.6754 C   0  0  0  0  0  0  0  0  0  0  0  0
  -19.6587   19.0757  -25.5183 C   0  0  0  0  0  0  0  0  0  0  0  0
  -18.1455   23.1632  -16.3558 C   0  0  0  0  0  0  0  0  0  0  0  0
  -20.1170   20.4260  -26.0424 C   0  0  0  0  0  0  0  0  0  0  0  0
  -21.1937   16.4829  -23.4648 C   0  0  0  0  0  0  0  0  0  0  0  0
  -20.4254   16.8332  -24.7497 C   0  0  2  0  0  0  0  0  0  0  0  0
  -18.2943   21.7905  -18.3520 N   0  0  0  0  0  0  0  0  0  0  0  0
  -17.8602   21.3918  -26.3107 N   0  0  0  0  0  0  0  0  0  0  0  0
  -20.2320   22.1041  -17.0614 N   0  0  0  0  0  0  0  0  0  0  0  0
  -17.1381   23.3474  -25.3137 N   0  0  0  0  0  0  0  0  0  0  0  0
  -20.6812   17.2377  -22.3326 N   0  0  0  0  0  0  0  0  0  0  0  0
  -20.6849   18.2026  -25.2015 N   0  0  0  0  0  0  0  0  0  0  0  0
  -18.6105   24.6102  -24.1160 O   0  0  0  0  0  0  0  0  0  0  0  0
  -22.2275   21.1536  -17.5942 O   0  0  0  0  0  0  0  0  0  0  0  0
  -15.7219   22.1004  -26.5636 O   0  0  0  0  0  0  0  0  0  0  0  0
  -22.6052   18.4428  -21.8946 O   0  0  0  0  0  0  0  0  0  0  0  0
  -18.4789   18.7768  -25.4188 O   0  0  0  0  0  0  0  0  0  0  0  0
  -22.2190   12.3475  -30.5854 H   0  0  0  0  0  0  0  0  0  0  0  0
  -23.7651   14.2844  -30.5041 H   0  0  0  0  0  0  0  0  0  0  0  0
  -20.4447   12.1244  -28.9539 H   0  0  0  0  0  0  0  0  0  0  0  0
  -23.5277   15.9639  -28.7288 H   0  0  0  0  0  0  0  0  0  0  0  0
  -19.3245   12.8989  -26.9192 H   0  0  0  0  0  0  0  0  0  0  0  0
  -19.0791   14.5380  -25.1517 H   0  0  0  0  0  0  0  0  0  0  0  0
  -22.3764   16.7749  -26.7356 H   0  0  0  0  0  0  0  0  0  0  0  0
  -20.3577   22.7265  -24.5151 H   0  0  0  0  0  0  0  0  0  0  0  0
  -18.5483   20.6629  -20.0509 H   0  0  0  0  0  0  0  0  0  0  0  0
  -22.1686   20.2530  -20.1472 H   0  0  0  0  0  0  0  0  0  0  0  0
  -19.5968   18.5890  -20.5176 H   0  0  0  0  0  0  0  0  0  0  0  0
  -17.5142   22.5222  -15.7340 H   0  0  0  0  0  0  0  0  0  0  0  0
  -18.8291   23.7281  -15.7168 H   0  0  0  0  0  0  0  0  0  0  0  0
  -17.5035   23.8610  -16.9016 H   0  0  0  0  0  0  0  0  0  0  0  0
  -20.2706   20.3356  -27.1230 H   0  0  0  0  0  0  0  0  0  0  0  0
  -21.0886   20.6717  -25.5995 H   0  0  0  0  0  0  0  0  0  0  0  0
  -22.2673   16.6663  -23.5847 H   0  0  0  0  0  0  0  0  0  0  0  0
  -21.0674   15.4254  -23.2091 H   0  0  0  0  0  0  0  0  0  0  0  0
  -19.3575   16.7879  -24.5105 H   0  0  0  0  0  0  0  0  0  0  0  0
  -17.6463   20.5772  -26.8765 H   0  0  0  0  0  0  0  0  0  0  0  0
  -20.6543   22.5171  -16.2403 H   0  0  0  0  0  0  0  0  0  0  0  0
  -16.4047   24.0187  -25.1329 H   0  0  0  0  0  0  0  0  0  0  0  0
  -19.7042   17.1060  -22.0833 H   0  0  0  0  0  0  0  0  0  0  0  0
  -21.6482   18.5001  -25.3103 H   0  0  0  0  0  0  0  0  0  0  0  0
  1 38  1  0  0  0  0
  1  2  1  0  0  0  0
  1  3  2  0  0  0  0
  2 39  1  0  0  0  0
  2  4  2  0  0  0  0
  3  8  1  0  0  0  0
  3 40  1  0  0  0  0
  4 41  1  0  0  0  0
  4  9  1  0  0  0  0
  5  6  2  0  0  0  0
  5 42  1  0  0  0  0
  5  8  1  0  0  0  0
  6 10  1  0  0  0  0
  6 43  1  0  0  0  0
  7  9  1  0  0  0  0
  7 44  1  0  0  0  0
  7 10  2  0  0  0  0
  8  9  2  0  0  0  0
 26 10  1  0  0  0  0
 11 14  2  0  0  0  0
 11 45  1  0  0  0  0
 11 15  1  0  0  0  0
 12 13  2  0  0  0  0
 12 46  1  0  0  0  0
 12 27  1  0  0  0  0
 13 19  1  0  0  0  0
 13 16  1  0  0  0  0
 14 24  1  0  0  0  0
 14 28  1  0  0  0  0
 15 33  2  0  0  0  0
 15 30  1  0  0  0  0
 16 29  1  0  0  0  0
 16 34  2  0  0  0  0
 17 27  2  0  0  0  0
 17 23  1  0  0  0  0
 17 29  1  0  0  0  0
 18 30  1  0  0  0  0
 18 35  2  0  0  0  0
 18 28  1  0  0  0  0
 19 20  2  0  0  0  0
 19 47  1  0  0  0  0
 20 21  1  0  0  0  0
 20 48  1  0  0  0  0
 21 31  1  0  0  0  0
 21 36  2  0  0  0  0
 22 32  1  0  0  0  0
 22 37  2  0  0  0  0
 22 24  1  0  0  0  0
 23 49  1  0  0  0  0
 23 50  1  0  0  0  0
 23 51  1  0  0  0  0
 24 52  1  0  0  0  0
 24 53  1  0  0  0  0
 26 25  1  0  0  0  0
 25 54  1  0  0  0  0
 25 55  1  0  0  0  0
 25 31  1  0  0  0  0
 26 56  1  0  0  0  0
 26 32  1  0  0  0  0
 28 57  1  0  0  0  0
 29 58  1  0  0  0  0
 30 59  1  0  0  0  0
 31 60  1  0  0  0  0
 32 61  1  0  0  0  0
M  ZZC   1 c1
M  ZZC   2 c2
M  ZZC   3 c3
M  ZZC   4 c4
M  ZZC   5 c5
M  ZZC   6 c6
M  ZZC   7 c7
M  ZZC   8 c8
M  ZZC   9 c9
M  ZZC  10 c10
M  ZZC  11 c11
M  ZZC  12 c12
M  ZZC  13 c13
M  ZZC  14 c14
M  ZZC  15 c15
M  ZZC  16 c16
M  ZZC  17 c17
M  ZZC  18 c18
M  ZZC  19 c19
M  ZZC  20 c20
M  ZZC  21 c21
M  ZZC  22 c22
M  ZZC  23 c23
M  ZZC  24 c24
M  ZZC  25 c25
M  ZZC  26 c26
M  ZZC  27 n1
M  ZZC  28 n2
M  ZZC  29 n3
M  ZZC  30 n4
M  ZZC  31 n5
M  ZZC  32 n6
M  ZZC  33 o1
M  ZZC  34 o2
M  ZZC  35 o3
M  ZZC  36 o4
M  ZZC  37 o5
M  ZZC  38 h1
M  ZZC  39 h2
M  ZZC  40 h3
M  ZZC  41 h4
M  ZZC  42 h5
M  ZZC  43 h6
M  ZZC  44 h7
M  ZZC  45 h8
M  ZZC  46 h9
M  ZZC  47 h10
M  ZZC  48 h11
M  ZZC  49 h12
M  ZZC  50 h13
M  ZZC  51 h14
M  ZZC  52 h15
M  ZZC  53 h16
M  ZZC  54 h17
M  ZZC  55 h18
M  ZZC  56 h19
M  ZZC  57 h20
M  ZZC  58 h21
M  ZZC  59 h22
M  ZZC  60 h23
M  ZZC  61 h24
M  ZZM   1 37
M  ZZI   1 125
M  ZZM   2 37
M  ZZI   2 125
M  ZZM   3 37
M  ZZI   3 125
M  ZZM   4 37
M  ZZI   4 125
M  ZZM   5 37
M  ZZI   5 125
M  ZZM   6 37
M  ZZI   6 125
M  ZZM   7 37
M  ZZI   7 125
M  ZZM   8 37
M  ZZI   8 124
M  ZZM   9 37
M  ZZI   9 124
M  ZZM  10 37
M  ZZI  10 124
M  ZZM  11 2
M  ZZI  11 120
M  ZZM  12 2
M  ZZI  12 120
M  ZZM  13 2
M  ZZI  13 120
M  ZZM  14 2
M  ZZI  14 120
M  ZZM  15 3
M  ZZI  15 121
M  ZZM  16 3
M  ZZI  16 121
M  ZZM  17 3
M  ZZI  17 121
M  ZZM  18 3
M  ZZI  18 121
M  ZZM  19 2
M  ZZI  19 120
M  ZZM  20 2
M  ZZI  20 120
M  ZZM  21 3
M  ZZI  21 121
M  ZZM  22 3
M  ZZI  22 121
M  ZZM  23 1
M  ZZI  23 111
M  ZZM  24 1
M  ZZI  24 112
M  ZZM  25 1
M  ZZI  25 112
M  ZZM  26 1
M  ZZI  26 113
M  ZZM  27 9
M  ZZI  27 220
M  ZZM  28 10
M  ZZI  28 191
M  ZZM  29 10
M  ZZI  29 191
M  ZZM  30 10
M  ZZI  30 191
M  ZZM  31 10
M  ZZI  31 211
M  ZZM  32 10
M  ZZI  32 211
M  ZZM  33 7
M  ZZI  33 81
M  ZZM  34 7
M  ZZI  34 81
M  ZZM  35 7
M  ZZI  35 81
M  ZZM  36 7
M  ZZI  36 81
M  ZZM  37 7
M  ZZI  37 81
M  ZZM  38 5
M  ZZI  38 1
M  ZZM  39 5
M  ZZI  39 1
M  ZZM  40 5
M  ZZI  40 1
M  ZZM  41 5
M  ZZI  41 1
M  ZZM  42 5
M  ZZI  42 1
M  ZZM  43 5
M  ZZI  43 1
M  ZZM  44 5
M  ZZI  44 1
M  ZZM  45 5
M  ZZI  45 1
M  ZZM  46 5
M  ZZI  46 1
M  ZZM  47 5
M  ZZI  47 1
M  ZZM  48 5
M  ZZI  48 1
M  ZZM  49 5
M  ZZI  49 1
M  ZZM  50 5
M  ZZI  50 1
M  ZZM  51 5
M  ZZI  51 1
M  ZZM  52 5
M  ZZI  52 1
M  ZZM  53 5
M  ZZI  53 1
M  ZZM  54 5
M  ZZI  54 1
M  ZZM  55 5
M  ZZI  55 1
M  ZZM  56 5
M  ZZI  56 1
M  ZZM  57 28
M  ZZI  57 11
M  ZZM  58 28
M  ZZI  58 11
M  ZZM  59 28
M  ZZI  59 11
M  ZZM  60 28
M  ZZI  60 11
M  ZZM  61 28
M  ZZI  61 11
M  END
> <IX>
52

> <NAME>
14

> <Score>
-37.087764

> <Natom>
61

> <Nflex>
6

> <Hbond>
-5.29211

> <Hphob>
-6.126606

> <VwInt>
-42.212715

> <Dsolv>
16.268284

> <SolEl>
3.431535

> <Eintl>
7.587984

> <RecConf>
ND

> <projPath>
icm/

> <NAME_>
14

$$$$
57
  MOLSOFT 08042117003D

 58 61  0  0  1  0  0  0  0  0999 V2000
  -25.0147   17.3030  -32.0239 C   0  0  0  0  0  0  0  0  0  0  0  0
  -25.3712   18.3240  -31.1632 C   0  0  0  0  0  0  0  0  0  0  0  0
  -23.7891   16.6790  -31.8801 C   0  0  0  0  0  0  0  0  0  0  0  0
  -24.5086   18.7162  -30.1512 C   0  0  0  0  0  0  0  0  0  0  0  0
  -21.6938   16.4363  -30.7040 C   0  0  0  0  0  0  0  0  0  0  0  0
  -20.8295   16.8053  -29.6884 C   0  0  0  0  0  0  0  0  0  0  0  0
  -22.4042   18.4528  -28.9654 C   0  0  0  0  0  0  0  0  0  0  0  0
  -22.9206   17.0619  -30.8627 C   0  0  0  0  0  0  0  0  0  0  0  0
  -23.2785   18.0835  -29.9865 C   0  0  0  0  0  0  0  0  0  0  0  0
  -21.1706   17.8157  -28.7953 C   0  0  0  0  0  0  0  0  0  0  0  0
  -20.8724   13.1758  -27.8639 C   0  0  0  0  0  0  0  0  0  0  0  0
  -21.1095   12.7286  -29.1044 C   0  0  0  0  0  0  0  0  0  0  0  0
  -17.6571   23.9881  -24.3935 C   0  0  0  0  0  0  0  0  0  0  0  0
  -16.5787   23.4914  -25.0111 C   0  0  0  0  0  0  0  0  0  0  0  0
  -22.9918   14.2770  -27.7754 C   0  0  0  0  0  0  0  0  0  0  0  0
  -21.8521   13.9590  -27.1527 C   0  0  0  0  0  0  0  0  0  0  0  0
  -22.4065   13.0314  -29.7596 C   0  0  0  0  0  0  0  0  0  0  0  0
  -19.0193   23.6211  -24.8144 C   0  0  0  0  0  0  0  0  0  0  0  0
  -16.6746   22.5757  -26.1561 C   0  0  0  0  0  0  0  0  0  0  0  0
  -20.7189   15.6713  -25.8540 C   0  0  0  0  0  0  0  0  0  0  0  0
  -18.6624   20.1077  -27.2078 C   0  0  0  0  0  0  0  0  0  0  0  0
  -21.5473   14.4183  -25.7531 C   0  0  0  0  0  0  0  0  0  0  0  0
  -18.2441   21.4685  -27.7347 C   0  0  0  0  0  0  0  0  0  0  0  0
  -20.8476   18.1051  -26.2837 C   0  0  0  0  0  0  0  0  0  0  0  0
  -20.2047   18.2054  -27.6887 C   0  0  2  0  0  0  0  0  0  0  0  0
  -23.2533   13.8375  -29.0436 N   0  0  0  0  0  0  0  0  0  0  0  0
  -19.0971   22.8316  -25.9341 N   0  0  0  0  0  0  0  0  0  0  0  0
  -17.9586   22.3503  -26.6132 N   0  0  0  0  0  0  0  0  0  0  0  0
  -21.4686   16.8183  -26.0245 N   0  0  0  0  0  0  0  0  0  0  0  0
  -19.6690   19.5315  -27.9604 N   0  0  0  0  0  0  0  0  0  0  0  0
  -22.6726   12.5835  -30.8619 O   0  0  0  0  0  0  0  0  0  0  0  0
  -19.9959   24.0029  -24.1906 O   0  0  0  0  0  0  0  0  0  0  0  0
  -15.6662   22.0773  -26.6323 O   0  0  0  0  0  0  0  0  0  0  0  0
  -19.4996   15.6400  -25.8327 O   0  0  0  0  0  0  0  0  0  0  0  0
  -18.1494   19.5785  -26.2308 O   0  0  0  0  0  0  0  0  0  0  0  0
  -25.6946   16.9912  -32.8108 H   0  0  0  0  0  0  0  0  0  0  0  0
  -26.3329   18.8144  -31.2780 H   0  0  0  0  0  0  0  0  0  0  0  0
  -23.5156   15.8892  -32.5726 H   0  0  0  0  0  0  0  0  0  0  0  0
  -24.8139   19.5165  -29.4838 H   0  0  0  0  0  0  0  0  0  0  0  0
  -21.4041   15.6401  -31.3783 H   0  0  0  0  0  0  0  0  0  0  0  0
  -19.8796   16.2853  -29.5972 H   0  0  0  0  0  0  0  0  0  0  0  0
  -22.6896   19.2533  -28.2890 H   0  0  0  0  0  0  0  0  0  0  0  0
  -19.9237   12.9629  -27.3807 H   0  0  0  0  0  0  0  0  0  0  0  0
  -20.3897   12.1497  -29.6655 H   0  0  0  0  0  0  0  0  0  0  0  0
  -17.5695   24.6567  -23.5456 H   0  0  0  0  0  0  0  0  0  0  0  0
  -15.5782   23.7304  -24.6845 H   0  0  0  0  0  0  0  0  0  0  0  0
  -23.7561   14.8998  -27.3211 H   0  0  0  0  0  0  0  0  0  0  0  0
  -20.9955   13.6618  -25.1852 H   0  0  0  0  0  0  0  0  0  0  0  0
  -22.4578   14.6415  -25.1892 H   0  0  0  0  0  0  0  0  0  0  0  0
  -17.3455   21.3432  -28.3456 H   0  0  0  0  0  0  0  0  0  0  0  0
  -19.0263   21.9215  -28.3542 H   0  0  0  0  0  0  0  0  0  0  0  0
  -20.1022   18.2678  -25.4992 H   0  0  0  0  0  0  0  0  0  0  0  0
  -21.6209   18.8676  -26.1438 H   0  0  0  0  0  0  0  0  0  0  0  0
  -19.3437   17.5274  -27.7196 H   0  0  0  0  0  0  0  0  0  0  0  0
  -24.1126   14.1148  -29.4973 H   0  0  0  0  0  0  0  0  0  0  0  0
  -20.0151   22.5605  -26.2691 H   0  0  0  0  0  0  0  0  0  0  0  0
  -22.4816   16.7645  -26.0239 H   0  0  0  0  0  0  0  0  0  0  0  0
  -19.9916   20.0008  -28.8002 H   0  0  0  0  0  0  0  0  0  0  0  0
  1 36  1  0  0  0  0
  1  2  1  0  0  0  0
  1  3  2  0  0  0  0
  2 37  1  0  0  0  0
  2  4  2  0  0  0  0
  3  8  1  0  0  0  0
  3 38  1  0  0  0  0
  4 39  1  0  0  0  0
  4  9  1  0  0  0  0
  5  6  2  0  0  0  0
  5 40  1  0  0  0  0
  5  8  1  0  0  0  0
  6 10  1  0  0  0  0
  6 41  1  0  0  0  0
  7  9  1  0  0  0  0
  7 42  1  0  0  0  0
  7 10  2  0  0  0  0
  8  9  2  0  0  0  0
 25 10  1  0  0  0  0
 11 16  1  0  0  0  0
 11 43  1  0  0  0  0
 11 12  2  0  0  0  0
 12 44  1  0  0  0  0
 12 17  1  0  0  0  0
 13 14  2  0  0  0  0
 13 45  1  0  0  0  0
 13 18  1  0  0  0  0
 14 19  1  0  0  0  0
 14 46  1  0  0  0  0
 15 26  1  0  0  0  0
 15 47  1  0  0  0  0
 15 16  2  0  0  0  0
 16 22  1  0  0  0  0
 17 31  2  0  0  0  0
 17 26  1  0  0  0  0
 18 32  2  0  0  0  0
 18 27  1  0  0  0  0
 19 28  1  0  0  0  0
 19 33  2  0  0  0  0
 20 29  1  0  0  0  0
 20 34  2  0  0  0  0
 20 22  1  0  0  0  0
 21 30  1  0  0  0  0
 21 35  2  0  0  0  0
 21 23  1  0  0  0  0
 22 48  1  0  0  0  0
 22 49  1  0  0  0  0
 23 50  1  0  0  0  0
 23 51  1  0  0  0  0
 23 28  1  0  0  0  0
 25 24  1  0  0  0  0
 24 52  1  0  0  0  0
 24 53  1  0  0  0  0
 24 29  1  0  0  0  0
 25 54  1  0  0  0  0
 25 30  1  0  0  0  0
 26 55  1  0  0  0  0
 27 56  1  0  0  0  0
 27 28  1  0  0  0  0
 29 57  1  0  0  0  0
 30 58  1  0  0  0  0
M  ZZC   1 c1
M  ZZC   2 c2
M  ZZC   3 c3
M  ZZC   4 c4
M  ZZC   5 c5
M  ZZC   6 c6
M  ZZC   7 c7
M  ZZC   8 c8
M  ZZC   9 c9
M  ZZC  10 c10
M  ZZC  11 c11
M  ZZC  12 c12
M  ZZC  13 c13
M  ZZC  14 c14
M  ZZC  15 c15
M  ZZC  16 c16
M  ZZC  17 c17
M  ZZC  18 c18
M  ZZC  19 c19
M  ZZC  20 c20
M  ZZC  21 c21
M  ZZC  22 c22
M  ZZC  23 c23
M  ZZC  24 c24
M  ZZC  25 c25
M  ZZC  26 n1
M  ZZC  27 n2
M  ZZC  28 n3
M  ZZC  29 n4
M  ZZC  30 n5
M  ZZC  31 o1
M  ZZC  32 o2
M  ZZC  33 o3
M  ZZC  34 o4
M  ZZC  35 o5
M  ZZC  36 h1
M  ZZC  37 h2
M  ZZC  38 h3
M  ZZC  39 h4
M  ZZC  40 h5
M  ZZC  41 h6
M  ZZC  42 h7
M  ZZC  43 h8
M  ZZC  44 h9
M  ZZC  45 h10
M  ZZC  46 h11
M  ZZC  47 h12
M  ZZC  48 h13
M  ZZC  49 h14
M  ZZC  50 h15
M  ZZC  51 h16
M  ZZC  52 h17
M  ZZC  53 h18
M  ZZC  54 h19
M  ZZC  55 h20
M  ZZC  56 h21
M  ZZC  57 h22
M  ZZC  58 h23
M  ZZM   1 37
M  ZZI   1 125
M  ZZM   2 37
M  ZZI   2 125
M  ZZM   3 37
M  ZZI   3 125
M  ZZM   4 37
M  ZZI   4 125
M  ZZM   5 37
M  ZZI   5 125
M  ZZM   6 37
M  ZZI   6 125
M  ZZM   7 37
M  ZZI   7 125
M  ZZM   8 37
M  ZZI   8 124
M  ZZM   9 37
M  ZZI   9 124
M  ZZM  10 37
M  ZZI  10 124
M  ZZM  11 2
M  ZZI  11 120
M  ZZM  12 2
M  ZZI  12 120
M  ZZM  13 2
M  ZZI  13 120
M  ZZM  14 2
M  ZZI  14 120
M  ZZM  15 2
M  ZZI  15 120
M  ZZM  16 2
M  ZZI  16 120
M  ZZM  17 3
M  ZZI  17 121
M  ZZM  18 3
M  ZZI  18 121
M  ZZM  19 3
M  ZZI  19 121
M  ZZM  20 3
M  ZZI  20 121
M  ZZM  21 3
M  ZZI  21 121
M  ZZM  22 1
M  ZZI  22 112
M  ZZM  23 1
M  ZZI  23 112
M  ZZM  24 1
M  ZZI  24 112
M  ZZM  25 1
M  ZZI  25 113
M  ZZM  26 10
M  ZZI  26 191
M  ZZM  27 10
M  ZZI  27 191
M  ZZM  28 10
M  ZZI  28 192
M  ZZM  29 10
M  ZZI  29 211
M  ZZM  30 10
M  ZZI  30 211
M  ZZM  31 7
M  ZZI  31 81
M  ZZM  32 7
M  ZZI  32 81
M  ZZM  33 7
M  ZZI  33 81
M  ZZM  34 7
M  ZZI  34 81
M  ZZM  35 7
M  ZZI  35 81
M  ZZM  36 5
M  ZZI  36 1
M  ZZM  37 5
M  ZZI  37 1
M  ZZM  38 5
M  ZZI  38 1
M  ZZM  39 5
M  ZZI  39 1
M  ZZM  40 5
M  ZZI  40 1
M  ZZM  41 5
M  ZZI  41 1
M  ZZM  42 5
M  ZZI  42 1
M  ZZM  43 5
M  ZZI  43 1
M  ZZM  44 5
M  ZZI  44 1
M  ZZM  45 5
M  ZZI  45 1
M  ZZM  46 5
M  ZZI  46 1
M  ZZM  47 5
M  ZZI  47 1
M  ZZM  48 5
M  ZZI  48 1
M  ZZM  49 5
M  ZZI  49 1
M  ZZM  50 5
M  ZZI  50 1
M  ZZM  51 5
M  ZZI  51 1
M  ZZM  52 5
M  ZZI  52 1
M  ZZM  53 5
M  ZZI  53 1
M  ZZM  54 5
M  ZZI  54 1
M  ZZM  55 28
M  ZZI  55 11
M  ZZM  56 28
M  ZZI  56 11
M  ZZM  57 28
M  ZZI  57 11
M  ZZM  58 28
M  ZZI  58 11
M  END
> <IX>
53

> <NAME>
57

> <Score>
-32.408493

> <Natom>
58

> <Nflex>
8

> <Hbond>
-6.476492

> <Hphob>
-6.530592

> <VwInt>
-38.656863

> <Dsolv>
18.478509

> <SolEl>
8.480811

> <Eintl>
4.588623

> <RecConf>
ND

> <projPath>
icm/

> <NAME_>
57

$$$$
6
  MOLSOFT 08042117033D

 59 62  0  0  1  0  0  0  0  0999 V2000
  -20.8751   14.9280  -24.1679 C   0  0  0  0  0  0  0  0  0  0  0  0
  -21.6301   16.0097  -24.5818 C   0  0  0  0  0  0  0  0  0  0  0  0
  -20.3222   14.0758  -25.1044 C   0  0  0  0  0  0  0  0  0  0  0  0
  -21.8209   16.2499  -25.9313 C   0  0  0  0  0  0  0  0  0  0  0  0
  -20.5229   14.3057  -26.4591 C   0  0  0  0  0  0  0  0  0  0  0  0
  -21.2558   15.4054  -26.8835 C   0  0  0  0  0  0  0  0  0  0  0  0
  -17.1114   23.2335  -25.1694 C   0  0  0  0  0  0  0  0  0  0  0  0
  -18.3684   23.3416  -24.7229 C   0  0  0  0  0  0  0  0  0  0  0  0
  -25.5292   16.9381  -32.2143 C   0  0  0  0  0  0  0  0  0  0  0  0
  -25.9073   19.0876  -32.7449 C   0  0  0  0  0  0  0  0  0  0  0  0
  -24.2054   17.0838  -32.0435 C   0  0  0  0  0  0  0  0  0  0  0  0
  -16.7652   22.3439  -26.2934 C   0  0  0  0  0  0  0  0  0  0  0  0
  -19.4723   22.5428  -25.2973 C   0  0  0  0  0  0  0  0  0  0  0  0
  -23.6484   18.4467  -32.2345 C   0  0  0  0  0  0  0  0  0  0  0  0
  -23.3414   15.9887  -31.6695 C   0  0  0  0  0  0  0  0  0  0  0  0
  -23.3911   15.4281  -30.4532 C   0  0  0  0  0  0  0  0  0  0  0  0
  -22.5707   14.2401  -30.1382 C   0  0  0  0  0  0  0  0  0  0  0  0
  -19.4787   19.3714  -26.9309 C   0  0  0  0  0  0  0  0  0  0  0  0
  -19.9626   13.4036  -27.5128 C   0  0  0  0  0  0  0  0  0  0  0  0
  -21.0186   13.1753  -28.5926 C   0  0  0  0  0  0  0  0  0  0  0  0
  -21.4106   15.6530  -28.3681 C   0  0  1  0  0  0  0  0  0  0  0  0
  -20.0427   20.7839  -26.9911 C   0  0  0  0  0  0  0  0  0  0  0  0
  -20.1869   16.3146  -29.0413 C   0  0  0  0  0  0  0  0  0  0  0  0
  -19.3570   17.2599  -28.1784 C   0  0  0  0  0  0  0  0  0  0  0  0
  -26.4219   17.9154  -32.5644 N   0  0  0  0  0  0  0  0  0  0  0  0
  -24.5778   19.3808  -32.5966 N   0  0  0  0  0  0  0  0  0  0  0  0
  -17.8208   21.7356  -26.9200 N   0  0  0  0  0  0  0  0  0  0  0  0
  -19.1233   21.7415  -26.3754 N   0  0  0  0  0  0  0  0  0  0  0  0
  -21.7029   14.3828  -29.0577 N   0  0  0  0  0  0  0  0  0  0  0  0
  -19.9713   18.5469  -27.9304 N   0  0  0  0  0  0  0  0  0  0  0  0
  -15.6042   22.1796  -26.6264 O   0  0  0  0  0  0  0  0  0  0  0  0
  -20.5937   22.6229  -24.8163 O   0  0  0  0  0  0  0  0  0  0  0  0
  -22.4667   18.7077  -32.0632 O   0  0  0  0  0  0  0  0  0  0  0  0
  -22.7218   13.2061  -30.7752 O   0  0  0  0  0  0  0  0  0  0  0  0
  -18.6648   19.0094  -26.0892 O   0  0  0  0  0  0  0  0  0  0  0  0
  -20.7190   14.7437  -23.1096 H   0  0  0  0  0  0  0  0  0  0  0  0
  -22.0680   16.6759  -23.8454 H   0  0  0  0  0  0  0  0  0  0  0  0
  -19.7431   13.2227  -24.7665 H   0  0  0  0  0  0  0  0  0  0  0  0
  -22.4085   17.1104  -26.2362 H   0  0  0  0  0  0  0  0  0  0  0  0
  -16.3000   23.7930  -24.7226 H   0  0  0  0  0  0  0  0  0  0  0  0
  -18.6163   23.9977  -23.8967 H   0  0  0  0  0  0  0  0  0  0  0  0
  -25.9780   15.9589  -32.0835 H   0  0  0  0  0  0  0  0  0  0  0  0
  -26.5254   19.9527  -33.0366 H   0  0  0  0  0  0  0  0  0  0  0  0
  -22.6349   15.6435  -32.4171 H   0  0  0  0  0  0  0  0  0  0  0  0
  -24.0511   15.7821  -29.6742 H   0  0  0  0  0  0  0  0  0  0  0  0
  -19.0571   13.8534  -27.9325 H   0  0  0  0  0  0  0  0  0  0  0  0
  -19.6666   12.4505  -27.0758 H   0  0  0  0  0  0  0  0  0  0  0  0
  -20.5834   12.6518  -29.4508 H   0  0  0  0  0  0  0  0  0  0  0  0
  -21.8102   12.5317  -28.1997 H   0  0  0  0  0  0  0  0  0  0  0  0
  -22.2592   16.3297  -28.4983 H   0  0  0  0  0  0  0  0  0  0  0  0
  -20.1979   21.0889  -28.0323 H   0  0  0  0  0  0  0  0  0  0  0  0
  -21.0086   20.7976  -26.4767 H   0  0  0  0  0  0  0  0  0  0  0  0
  -20.5138   16.8310  -29.9504 H   0  0  0  0  0  0  0  0  0  0  0  0
  -19.5046   15.5369  -29.3992 H   0  0  0  0  0  0  0  0  0  0  0  0
  -19.0716   16.8052  -27.2276 H   0  0  0  0  0  0  0  0  0  0  0  0
  -18.4242   17.4804  -28.7035 H   0  0  0  0  0  0  0  0  0  0  0  0
  -24.2511   20.3262  -32.7472 H   0  0  0  0  0  0  0  0  0  0  0  0
  -17.6268   21.1396  -27.7197 H   0  0  0  0  0  0  0  0  0  0  0  0
  -20.6242   18.9113  -28.6166 H   0  0  0  0  0  0  0  0  0  0  0  0
  1 36  1  0  0  0  0
  1  2  1  0  0  0  0
  1  3  2  0  0  0  0
  2 37  1  0  0  0  0
  2  4  2  0  0  0  0
  3  5  1  0  0  0  0
  3 38  1  0  0  0  0
  4 39  1  0  0  0  0
  4  6  1  0  0  0  0
  5 19  1  0  0  0  0
  5  6  2  0  0  0  0
 21  6  1  0  0  0  0
  7  8  2  0  0  0  0
  7 40  1  0  0  0  0
  7 12  1  0  0  0  0
  8 13  1  0  0  0  0
  8 41  1  0  0  0  0
  9 25  1  0  0  0  0
  9 42  1  0  0  0  0
  9 11  2  0  0  0  0
 10 26  1  0  0  0  0
 10 43  1  0  0  0  0
 10 25  2  0  0  0  0
 11 15  1  0  0  0  0
 11 14  1  0  0  0  0
 12 31  2  0  0  0  0
 12 27  1  0  0  0  0
 13 28  1  0  0  0  0
 13 32  2  0  0  0  0
 14 33  2  0  0  0  0
 14 26  1  0  0  0  0
 15 16  2  0  0  0  0
 15 44  1  0  0  0  0
 16 17  1  0  0  0  0
 16 45  1  0  0  0  0
 17 29  1  0  0  0  0
 17 34  2  0  0  0  0
 18 30  1  0  0  0  0
 18 35  2  0  0  0  0
 18 22  1  0  0  0  0
 19 20  1  0  0  0  0
 19 46  1  0  0  0  0
 19 47  1  0  0  0  0
 20 29  1  0  0  0  0
 20 48  1  0  0  0  0
 20 49  1  0  0  0  0
 21 50  1  0  0  0  0
 21 29  1  0  0  0  0
 21 23  1  0  0  0  0
 22 51  1  0  0  0  0
 22 52  1  0  0  0  0
 22 28  1  0  0  0  0
 23 53  1  0  0  0  0
 23 54  1  0  0  0  0
 23 24  1  0  0  0  0
 24 55  1  0  0  0  0
 24 56  1  0  0  0  0
 24 30  1  0  0  0  0
 26 57  1  0  0  0  0
 27 58  1  0  0  0  0
 27 28  1  0  0  0  0
 30 59  1  0  0  0  0
M  ZZC   1 c1
M  ZZC   2 c2
M  ZZC   3 c3
M  ZZC   4 c4
M  ZZC   5 c5
M  ZZC   6 c6
M  ZZC   7 c7
M  ZZC   8 c8
M  ZZC   9 c9
M  ZZC  10 c10
M  ZZC  11 c11
M  ZZC  12 c12
M  ZZC  13 c13
M  ZZC  14 c14
M  ZZC  15 c15
M  ZZC  16 c16
M  ZZC  17 c17
M  ZZC  18 c18
M  ZZC  19 c19
M  ZZC  20 c20
M  ZZC  21 c21
M  ZZC  22 c22
M  ZZC  23 c23
M  ZZC  24 c24
M  ZZC  25 n1
M  ZZC  26 n2
M  ZZC  27 n3
M  ZZC  28 n4
M  ZZC  29 n5
M  ZZC  30 n6
M  ZZC  31 o1
M  ZZC  32 o2
M  ZZC  33 o3
M  ZZC  34 o4
M  ZZC  35 o5
M  ZZC  36 h1
M  ZZC  37 h2
M  ZZC  38 h3
M  ZZC  39 h4
M  ZZC  40 h5
M  ZZC  41 h6
M  ZZC  42 h7
M  ZZC  43 h8
M  ZZC  44 h9
M  ZZC  45 h10
M  ZZC  46 h11
M  ZZC  47 h12
M  ZZC  48 h13
M  ZZC  49 h14
M  ZZC  50 h15
M  ZZC  51 h16
M  ZZC  52 h17
M  ZZC  53 h18
M  ZZC  54 h19
M  ZZC  55 h20
M  ZZC  56 h21
M  ZZC  57 h22
M  ZZC  58 h23
M  ZZC  59 h24
M  ZZM   1 37
M  ZZI   1 125
M  ZZM   2 37
M  ZZI   2 125
M  ZZM   3 37
M  ZZI   3 125
M  ZZM   4 37
M  ZZI   4 125
M  ZZM   5 37
M  ZZI   5 124
M  ZZM   6 37
M  ZZI   6 124
M  ZZM   7 2
M  ZZI   7 120
M  ZZM   8 2
M  ZZI   8 120
M  ZZM   9 2
M  ZZI   9 120
M  ZZM  10 3
M  ZZI  10 121
M  ZZM  11 2
M  ZZI  11 120
M  ZZM  12 3
M  ZZI  12 121
M  ZZM  13 3
M  ZZI  13 121
M  ZZM  14 3
M  ZZI  14 121
M  ZZM  15 2
M  ZZI  15 120
M  ZZM  16 2
M  ZZI  16 120
M  ZZM  17 3
M  ZZI  17 121
M  ZZM  18 3
M  ZZI  18 121
M  ZZM  19 1
M  ZZI  19 112
M  ZZM  20 1
M  ZZI  20 112
M  ZZM  21 1
M  ZZI  21 113
M  ZZM  22 1
M  ZZI  22 112
M  ZZM  23 1
M  ZZI  23 112
M  ZZM  24 1
M  ZZI  24 112
M  ZZM  25 9
M  ZZI  25 220
M  ZZM  26 10
M  ZZI  26 191
M  ZZM  27 10
M  ZZI  27 191
M  ZZM  28 10
M  ZZI  28 192
M  ZZM  29 10
M  ZZI  29 192
M  ZZM  30 10
M  ZZI  30 211
M  ZZM  31 7
M  ZZI  31 81
M  ZZM  32 7
M  ZZI  32 81
M  ZZM  33 7
M  ZZI  33 81
M  ZZM  34 7
M  ZZI  34 81
M  ZZM  35 7
M  ZZI  35 81
M  ZZM  36 5
M  ZZI  36 1
M  ZZM  37 5
M  ZZI  37 1
M  ZZM  38 5
M  ZZI  38 1
M  ZZM  39 5
M  ZZI  39 1
M  ZZM  40 5
M  ZZI  40 1
M  ZZM  41 5
M  ZZI  41 1
M  ZZM  42 5
M  ZZI  42 1
M  ZZM  43 5
M  ZZI  43 1
M  ZZM  44 5
M  ZZI  44 1
M  ZZM  45 5
M  ZZI  45 1
M  ZZM  46 5
M  ZZI  46 1
M  ZZM  47 5
M  ZZI  47 1
M  ZZM  48 5
M  ZZI  48 1
M  ZZM  49 5
M  ZZI  49 1
M  ZZM  50 5
M  ZZI  50 1
M  ZZM  51 5
M  ZZI  51 1
M  ZZM  52 5
M  ZZI  52 1
M  ZZM  53 5
M  ZZI  53 1
M  ZZM  54 5
M  ZZI  54 1
M  ZZM  55 5
M  ZZI  55 1
M  ZZM  56 5
M  ZZI  56 1
M  ZZM  57 28
M  ZZI  57 11
M  ZZM  58 28
M  ZZI  58 11
M  ZZM  59 28
M  ZZI  59 11
M  END
> <IX>
54

> <NAME>
6

> <Score>
-31.587855

> <Natom>
59

> <Nflex>
6

> <Hbond>
-6.531766

> <Hphob>
-6.167833

> <VwInt>
-44.416109

> <Dsolv>
19.922368

> <SolEl>
9.973019

> <Eintl>
13.936838

> <RecConf>
ND

> <projPath>
icm/

> <NAME_>
6

$$$$
65
  MOLSOFT 08042117053D

 49 51  0  0  1  0  0  0  0  0999 V2000
  -21.7494   12.9972  -29.6941 C   0  0  0  0  0  0  0  0  0  0  0  0
  -20.4356   13.2846  -29.3821 C   0  0  0  0  0  0  0  0  0  0  0  0
  -22.7322   13.9228  -29.4075 C   0  0  0  0  0  0  0  0  0  0  0  0
  -20.0990   14.4856  -28.7875 C   0  0  0  0  0  0  0  0  0  0  0  0
  -22.4022   15.1274  -28.8107 C   0  0  0  0  0  0  0  0  0  0  0  0
  -21.0789   15.4361  -28.4969 C   0  0  0  0  0  0  0  0  0  0  0  0
  -17.7844   23.7171  -24.5040 C   0  0  0  0  0  0  0  0  0  0  0  0
  -16.7719   23.1990  -25.2098 C   0  0  0  0  0  0  0  0  0  0  0  0
  -20.7129   14.7022  -23.9885 C   0  0  0  0  0  0  0  0  0  0  0  0
  -21.3565   16.8585  -23.0771 C   0  0  0  0  0  0  0  0  0  0  0  0
  -20.4488   14.2398  -22.7663 C   0  0  0  0  0  0  0  0  0  0  0  0
  -21.1871   16.0543  -24.1391 C   0  0  0  0  0  0  0  0  0  0  0  0
  -19.1771   23.2746  -24.7068 C   0  0  0  0  0  0  0  0  0  0  0  0
  -16.9895   22.1940  -26.2694 C   0  0  0  0  0  0  0  0  0  0  0  0
  -21.0283   16.3490  -21.7210 C   0  0  0  0  0  0  0  0  0  0  0  0
  -21.5577   16.6033  -25.4745 C   0  0  0  0  0  0  0  0  0  0  0  0
  -18.8776   19.5719  -27.3241 C   0  0  0  0  0  0  0  0  0  0  0  0
  -18.7480   21.0552  -27.6411 C   0  0  0  0  0  0  0  0  0  0  0  0
  -19.5219   17.4315  -28.4712 C   0  0  0  0  0  0  0  0  0  0  0  0
  -20.7428   16.7505  -27.8179 C   0  0  2  0  0  0  0  0  0  0  0  0
  -20.6051   15.0385  -21.6651 N   0  0  0  0  0  0  0  0  0  0  0  0
  -19.3640   22.3366  -25.6917 N   0  0  0  0  0  0  0  0  0  0  0  0
  -18.3160   21.8644  -26.5057 N   0  0  0  0  0  0  0  0  0  0  0  0
  -20.5379   16.5002  -26.3978 N   0  0  0  0  0  0  0  0  0  0  0  0
  -19.4947   18.8826  -28.3575 N   0  0  0  0  0  0  0  0  0  0  0  0
  -20.0851   23.7146  -24.0203 O   0  0  0  0  0  0  0  0  0  0  0  0
  -16.0359   21.7355  -26.8807 O   0  0  0  0  0  0  0  0  0  0  0  0
  -21.1475   17.0646  -20.7393 O   0  0  0  0  0  0  0  0  0  0  0  0
  -22.6646   17.0792  -25.6838 O   0  0  0  0  0  0  0  0  0  0  0  0
  -18.4397   19.0512  -26.3061 O   0  0  0  0  0  0  0  0  0  0  0  0
  -22.0063   12.0501  -30.1570 H   0  0  0  0  0  0  0  0  0  0  0  0
  -19.6609   12.5637  -29.6032 H   0  0  0  0  0  0  0  0  0  0  0  0
  -23.7663   13.7034  -29.6487 H   0  0  0  0  0  0  0  0  0  0  0  0
  -19.0558   14.6682  -28.5487 H   0  0  0  0  0  0  0  0  0  0  0  0
  -23.1975   15.8312  -28.5827 H   0  0  0  0  0  0  0  0  0  0  0  0
  -17.6147   24.4628  -23.7361 H   0  0  0  0  0  0  0  0  0  0  0  0
  -15.7505   23.5130  -25.0379 H   0  0  0  0  0  0  0  0  0  0  0  0
  -20.5999   14.0641  -24.8591 H   0  0  0  0  0  0  0  0  0  0  0  0
  -21.7224   17.8765  -23.1505 H   0  0  0  0  0  0  0  0  0  0  0  0
  -20.1087   13.2268  -22.5876 H   0  0  0  0  0  0  0  0  0  0  0  0
  -18.0093   21.1646  -28.4412 H   0  0  0  0  0  0  0  0  0  0  0  0
  -19.7032   21.4433  -28.0130 H   0  0  0  0  0  0  0  0  0  0  0  0
  -18.5869   17.0445  -28.0602 H   0  0  0  0  0  0  0  0  0  0  0  0
  -19.5083   17.2342  -29.5483 H   0  0  0  0  0  0  0  0  0  0  0  0
  -21.6028   17.4219  -27.9236 H   0  0  0  0  0  0  0  0  0  0  0  0
  -20.4022   14.6553  -20.7495 H   0  0  0  0  0  0  0  0  0  0  0  0
  -20.2988   21.9728  -25.8440 H   0  0  0  0  0  0  0  0  0  0  0  0
  -19.6494   16.1106  -26.1042 H   0  0  0  0  0  0  0  0  0  0  0  0
  -19.8778   19.4077  -29.1369 H   0  0  0  0  0  0  0  0  0  0  0  0
  1 31  1  0  0  0  0
  1  2  1  0  0  0  0
  1  3  2  0  0  0  0
  2 32  1  0  0  0  0
  2  4  2  0  0  0  0
  3  5  1  0  0  0  0
  3 33  1  0  0  0  0
  4 34  1  0  0  0  0
  4  6  1  0  0  0  0
  5  6  2  0  0  0  0
  5 35  1  0  0  0  0
 20  6  1  0  0  0  0
  7  8  2  0  0  0  0
  7 36  1  0  0  0  0
  7 13  1  0  0  0  0
  8 14  1  0  0  0  0
  8 37  1  0  0  0  0
  9 11  2  0  0  0  0
  9 38  1  0  0  0  0
  9 12  1  0  0  0  0
 10 12  2  0  0  0  0
 10 39  1  0  0  0  0
 10 15  1  0  0  0  0
 11 21  1  0  0  0  0
 11 40  1  0  0  0  0
 12 16  1  0  0  0  0
 13 26  2  0  0  0  0
 13 22  1  0  0  0  0
 14 23  1  0  0  0  0
 14 27  2  0  0  0  0
 15 28  2  0  0  0  0
 15 21  1  0  0  0  0
 16 24  1  0  0  0  0
 16 29  2  0  0  0  0
 17 25  1  0  0  0  0
 17 30  2  0  0  0  0
 17 18  1  0  0  0  0
 18 41  1  0  0  0  0
 18 42  1  0  0  0  0
 18 23  1  0  0  0  0
 20 19  1  0  0  0  0
 19 43  1  0  0  0  0
 19 44  1  0  0  0  0
 19 25  1  0  0  0  0
 20 45  1  0  0  0  0
 20 24  1  0  0  0  0
 21 46  1  0  0  0  0
 22 47  1  0  0  0  0
 22 23  1  0  0  0  0
 24 48  1  0  0  0  0
 25 49  1  0  0  0  0
M  ZZC   1 c1
M  ZZC   2 c2
M  ZZC   3 c3
M  ZZC   4 c4
M  ZZC   5 c5
M  ZZC   6 c6
M  ZZC   7 c7
M  ZZC   8 c8
M  ZZC   9 c9
M  ZZC  10 c10
M  ZZC  11 c11
M  ZZC  12 c12
M  ZZC  13 c13
M  ZZC  14 c14
M  ZZC  15 c15
M  ZZC  16 c16
M  ZZC  17 c17
M  ZZC  18 c18
M  ZZC  19 c19
M  ZZC  20 c20
M  ZZC  21 n1
M  ZZC  22 n2
M  ZZC  23 n3
M  ZZC  24 n4
M  ZZC  25 n5
M  ZZC  26 o1
M  ZZC  27 o2
M  ZZC  28 o3
M  ZZC  29 o4
M  ZZC  30 o5
M  ZZC  31 h1
M  ZZC  32 h2
M  ZZC  33 h3
M  ZZC  34 h4
M  ZZC  35 h5
M  ZZC  36 h6
M  ZZC  37 h7
M  ZZC  38 h8
M  ZZC  39 h9
M  ZZC  40 h10
M  ZZC  41 h11
M  ZZC  42 h12
M  ZZC  43 h13
M  ZZC  44 h14
M  ZZC  45 h15
M  ZZC  46 h16
M  ZZC  47 h17
M  ZZC  48 h18
M  ZZC  49 h19
M  ZZM   1 37
M  ZZI   1 125
M  ZZM   2 37
M  ZZI   2 125
M  ZZM   3 37
M  ZZI   3 125
M  ZZM   4 37
M  ZZI   4 125
M  ZZM   5 37
M  ZZI   5 125
M  ZZM   6 37
M  ZZI   6 124
M  ZZM   7 2
M  ZZI   7 120
M  ZZM   8 2
M  ZZI   8 120
M  ZZM   9 2
M  ZZI   9 120
M  ZZM  10 2
M  ZZI  10 120
M  ZZM  11 2
M  ZZI  11 120
M  ZZM  12 2
M  ZZI  12 120
M  ZZM  13 3
M  ZZI  13 121
M  ZZM  14 3
M  ZZI  14 121
M  ZZM  15 3
M  ZZI  15 121
M  ZZM  16 3
M  ZZI  16 121
M  ZZM  17 3
M  ZZI  17 121
M  ZZM  18 1
M  ZZI  18 112
M  ZZM  19 1
M  ZZI  19 112
M  ZZM  20 1
M  ZZI  20 113
M  ZZM  21 10
M  ZZI  21 191
M  ZZM  22 10
M  ZZI  22 191
M  ZZM  23 10
M  ZZI  23 192
M  ZZM  24 10
M  ZZI  24 211
M  ZZM  25 10
M  ZZI  25 211
M  ZZM  26 7
M  ZZI  26 81
M  ZZM  27 7
M  ZZI  27 81
M  ZZM  28 7
M  ZZI  28 81
M  ZZM  29 7
M  ZZI  29 81
M  ZZM  30 7
M  ZZI  30 81
M  ZZM  31 5
M  ZZI  31 1
M  ZZM  32 5
M  ZZI  32 1
M  ZZM  33 5
M  ZZI  33 1
M  ZZM  34 5
M  ZZI  34 1
M  ZZM  35 5
M  ZZI  35 1
M  ZZM  36 5
M  ZZI  36 1
M  ZZM  37 5
M  ZZI  37 1
M  ZZM  38 5
M  ZZI  38 1
M  ZZM  39 5
M  ZZI  39 1
M  ZZM  40 5
M  ZZI  40 1
M  ZZM  41 5
M  ZZI  41 1
M  ZZM  42 5
M  ZZI  42 1
M  ZZM  43 5
M  ZZI  43 1
M  ZZM  44 5
M  ZZI  44 1
M  ZZM  45 5
M  ZZI  45 1
M  ZZM  46 28
M  ZZI  46 11
M  ZZM  47 28
M  ZZI  47 11
M  ZZM  48 28
M  ZZI  48 11
M  ZZM  49 28
M  ZZI  49 11
M  END
> <IX>
55

> <NAME>
65

> <Score>
-27.459384

> <Natom>
49

> <Nflex>
6

> <Hbond>
-4.052697

> <Hphob>
-5.961699

> <VwInt>
-39.76648

> <Dsolv>
16.424463

> <SolEl>
9.517616

> <Eintl>
7.257971

> <RecConf>
ND

> <projPath>
icm/

> <NAME_>
65

$$$$
24
  MOLSOFT 08042117083D

 59 62  0  0  1  0  0  0  0  0999 V2000
  -22.1360   12.6011  -29.6716 C   0  0  0  0  0  0  0  0  0  0  0  0
  -20.7536   12.6545  -29.7362 C   0  0  0  0  0  0  0  0  0  0  0  0
  -22.8426   13.6142  -29.0557 C   0  0  0  0  0  0  0  0  0  0  0  0
  -20.0464   13.7105  -29.1952 C   0  0  0  0  0  0  0  0  0  0  0  0
  -22.1329   14.6490  -28.4825 C   0  0  0  0  0  0  0  0  0  0  0  0
  -20.7668   14.7009  -28.5609 C   0  0  0  0  0  0  0  0  0  0  0  0
  -18.9741   22.9836  -25.7310 C   0  0  0  0  0  0  0  0  0  0  0  0
  -22.8379   15.2541  -20.7697 C   0  0  0  0  0  0  0  0  0  0  0  0
  -17.5929   24.1710  -24.4268 C   0  0  0  0  0  0  0  0  0  0  0  0
  -18.0050   22.3898  -26.4441 C   0  0  0  0  0  0  0  0  0  0  0  0
  -21.8169   14.9031  -21.5672 C   0  0  0  0  0  0  0  0  0  0  0  0
  -16.6099   22.7172  -26.0683 C   0  0  0  0  0  0  0  0  0  0  0  0
  -21.0100   13.7267  -21.1288 C   0  0  0  0  0  0  0  0  0  0  0  0
  -22.4325   13.7165  -19.1819 C   0  0  0  0  0  0  0  0  0  0  0  0
  -18.2702   21.4586  -27.5161 C   0  0  0  0  0  0  0  0  0  0  0  0
  -21.6037   15.5766  -22.8305 C   0  0  0  0  0  0  0  0  0  0  0  0
  -18.9990   20.3507  -27.3198 C   0  0  0  0  0  0  0  0  0  0  0  0
  -20.4349   15.6699  -23.4848 C   0  0  0  0  0  0  0  0  0  0  0  0
  -19.2647   19.4051  -28.4268 C   0  0  0  0  0  0  0  0  0  0  0  0
  -20.4309   16.3722  -24.7847 C   0  0  0  0  0  0  0  0  0  0  0  0
  -22.6881   15.8210  -27.7549 C   0  0  0  0  0  0  0  0  0  0  0  0
  -20.2172   15.8863  -27.8481 C   0  0  2  0  0  0  0  0  0  0  0  0
  -21.4442   16.3512  -27.0335 C   0  0  2  0  0  0  0  0  0  0  0  0
  -22.7113   13.0080  -17.8847 C   0  0  0  0  0  0  0  0  0  0  0  0
  -19.6841   16.9837  -28.7658 C   0  0  0  0  0  0  0  0  0  0  0  0
  -18.8188   23.8839  -24.7132 N   0  0  0  0  0  0  0  0  0  0  0  0
  -23.1905   14.6857  -19.5777 N   0  0  0  0  0  0  0  0  0  0  0  0
  -16.5084   23.6326  -25.0631 N   0  0  0  0  0  0  0  0  0  0  0  0
  -21.3583   13.2523  -19.8992 N   0  0  0  0  0  0  0  0  0  0  0  0
  -21.3482   15.8478  -25.6720 N   0  0  0  0  0  0  0  0  0  0  0  0
  -19.2889   18.1169  -27.9578 N   0  0  0  0  0  0  0  0  0  0  0  0
  -15.6498   22.1702  -26.5885 O   0  0  0  0  0  0  0  0  0  0  0  0
  -20.1474   13.2027  -21.8202 O   0  0  0  0  0  0  0  0  0  0  0  0
  -19.4428   19.7567  -29.5840 O   0  0  0  0  0  0  0  0  0  0  0  0
  -19.6448   17.2772  -25.0271 O   0  0  0  0  0  0  0  0  0  0  0  0
  -22.6647   11.7565  -30.0942 H   0  0  0  0  0  0  0  0  0  0  0  0
  -20.2177   11.8496  -30.2083 H   0  0  0  0  0  0  0  0  0  0  0  0
  -23.9215   13.5850  -29.0107 H   0  0  0  0  0  0  0  0  0  0  0  0
  -18.9622   13.7441  -29.2438 H   0  0  0  0  0  0  0  0  0  0  0  0
  -20.0073   22.7561  -25.9570 H   0  0  0  0  0  0  0  0  0  0  0  0
  -23.4792   16.0815  -21.0571 H   0  0  0  0  0  0  0  0  0  0  0  0
  -17.3368   24.8873  -23.6291 H   0  0  0  0  0  0  0  0  0  0  0  0
  -17.8214   21.6748  -28.4817 H   0  0  0  0  0  0  0  0  0  0  0  0
  -22.4815   16.0603  -23.2503 H   0  0  0  0  0  0  0  0  0  0  0  0
  -19.4070   20.0968  -26.3466 H   0  0  0  0  0  0  0  0  0  0  0  0
  -19.4869   15.2985  -23.1119 H   0  0  0  0  0  0  0  0  0  0  0  0
  -23.0644   16.5486  -28.4825 H   0  0  0  0  0  0  0  0  0  0  0  0
  -23.4927   15.5387  -27.0666 H   0  0  0  0  0  0  0  0  0  0  0  0
  -19.4107   15.5511  -27.1850 H   0  0  0  0  0  0  0  0  0  0  0  0
  -21.5085   17.4408  -26.9369 H   0  0  0  0  0  0  0  0  0  0  0  0
  -23.2388   12.0737  -18.0966 H   0  0  0  0  0  0  0  0  0  0  0  0
  -23.3357   13.6313  -17.2378 H   0  0  0  0  0  0  0  0  0  0  0  0
  -21.7754   12.7762  -17.3699 H   0  0  0  0  0  0  0  0  0  0  0  0
  -18.8021   16.6427  -29.3173 H   0  0  0  0  0  0  0  0  0  0  0  0
  -20.4286   17.3054  -29.5027 H   0  0  0  0  0  0  0  0  0  0  0  0
  -15.5820   23.8891  -24.7519 H   0  0  0  0  0  0  0  0  0  0  0  0
  -20.8311   12.4577  -19.5647 H   0  0  0  0  0  0  0  0  0  0  0  0
  -21.8836   15.0257  -25.4115 H   0  0  0  0  0  0  0  0  0  0  0  0
  -19.0444   17.9449  -26.9842 H   0  0  0  0  0  0  0  0  0  0  0  0
  1 36  1  0  0  0  0
  1  2  1  0  0  0  0
  1  3  2  0  0  0  0
  2 37  1  0  0  0  0
  2  4  2  0  0  0  0
  3  5  1  0  0  0  0
  3 38  1  0  0  0  0
  4 39  1  0  0  0  0
  4  6  1  0  0  0  0
  5 21  1  0  0  0  0
  5  6  2  0  0  0  0
 22  6  1  0  0  0  0
  7 26  1  0  0  0  0
  7 40  1  0  0  0  0
  7 10  2  0  0  0  0
  8 27  1  0  0  0  0
  8 41  1  0  0  0  0
  8 11  2  0  0  0  0
  9 28  1  0  0  0  0
  9 42  1  0  0  0  0
  9 26  2  0  0  0  0
 10 15  1  0  0  0  0
 10 12  1  0  0  0  0
 11 16  1  0  0  0  0
 11 13  1  0  0  0  0
 12 32  2  0  0  0  0
 12 28  1  0  0  0  0
 13 33  2  0  0  0  0
 13 29  1  0  0  0  0
 14 29  1  0  0  0  0
 14 24  1  0  0  0  0
 14 27  2  0  0  0  0
 15 17  2  0  0  0  0
 15 43  1  0  0  0  0
 16 18  2  0  0  0  0
 16 44  1  0  0  0  0
 17 19  1  0  0  0  0
 17 45  1  0  0  0  0
 18 20  1  0  0  0  0
 18 46  1  0  0  0  0
 19 31  1  0  0  0  0
 19 34  2  0  0  0  0
 20 30  1  0  0  0  0
 20 35  2  0  0  0  0
 23 21  1  0  0  0  0
 21 47  1  0  0  0  0
 21 48  1  0  0  0  0
 22 49  1  0  0  0  0
 22 25  1  0  0  0  0
 22 23  1  0  0  0  0
 23 50  1  0  0  0  0
 23 30  1  0  0  0  0
 24 51  1  0  0  0  0
 24 52  1  0  0  0  0
 24 53  1  0  0  0  0
 25 54  1  0  0  0  0
 25 55  1  0  0  0  0
 25 31  1  0  0  0  0
 28 56  1  0  0  0  0
 29 57  1  0  0  0  0
 30 58  1  0  0  0  0
 31 59  1  0  0  0  0
M  ZZC   1 c1
M  ZZC   2 c2
M  ZZC   3 c3
M  ZZC   4 c4
M  ZZC   5 c5
M  ZZC   6 c6
M  ZZC   7 c7
M  ZZC   8 c8
M  ZZC   9 c9
M  ZZC  10 c10
M  ZZC  11 c11
M  ZZC  12 c12
M  ZZC  13 c13
M  ZZC  14 c14
M  ZZC  15 c15
M  ZZC  16 c16
M  ZZC  17 c17
M  ZZC  18 c18
M  ZZC  19 c19
M  ZZC  20 c20
M  ZZC  21 c21
M  ZZC  22 c22
M  ZZC  23 c23
M  ZZC  24 c24
M  ZZC  25 c25
M  ZZC  26 n1
M  ZZC  27 n2
M  ZZC  28 n3
M  ZZC  29 n4
M  ZZC  30 n5
M  ZZC  31 n6
M  ZZC  32 o1
M  ZZC  33 o2
M  ZZC  34 o3
M  ZZC  35 o4
M  ZZC  36 h1
M  ZZC  37 h2
M  ZZC  38 h3
M  ZZC  39 h4
M  ZZC  40 h5
M  ZZC  41 h6
M  ZZC  42 h7
M  ZZC  43 h8
M  ZZC  44 h9
M  ZZC  45 h10
M  ZZC  46 h11
M  ZZC  47 h12
M  ZZC  48 h13
M  ZZC  49 h14
M  ZZC  50 h15
M  ZZC  51 h16
M  ZZC  52 h17
M  ZZC  53 h18
M  ZZC  54 h19
M  ZZC  55 h20
M  ZZC  56 h21
M  ZZC  57 h22
M  ZZC  58 h23
M  ZZC  59 h24
M  ZZM   1 37
M  ZZI   1 125
M  ZZM   2 37
M  ZZI   2 125
M  ZZM   3 37
M  ZZI   3 125
M  ZZM   4 37
M  ZZI   4 125
M  ZZM   5 37
M  ZZI   5 124
M  ZZM   6 37
M  ZZI   6 124
M  ZZM   7 2
M  ZZI   7 120
M  ZZM   8 2
M  ZZI   8 120
M  ZZM   9 3
M  ZZI   9 121
M  ZZM  10 2
M  ZZI  10 120
M  ZZM  11 2
M  ZZI  11 120
M  ZZM  12 3
M  ZZI  12 121
M  ZZM  13 3
M  ZZI  13 121
M  ZZM  14 3
M  ZZI  14 121
M  ZZM  15 2
M  ZZI  15 120
M  ZZM  16 2
M  ZZI  16 120
M  ZZM  17 2
M  ZZI  17 120
M  ZZM  18 2
M  ZZI  18 120
M  ZZM  19 3
M  ZZI  19 121
M  ZZM  20 3
M  ZZI  20 121
M  ZZM  21 1
M  ZZI  21 112
M  ZZM  22 1
M  ZZI  22 113
M  ZZM  23 1
M  ZZI  23 113
M  ZZM  24 1
M  ZZI  24 111
M  ZZM  25 1
M  ZZI  25 112
M  ZZM  26 9
M  ZZI  26 220
M  ZZM  27 9
M  ZZI  27 220
M  ZZM  28 10
M  ZZI  28 191
M  ZZM  29 10
M  ZZI  29 191
M  ZZM  30 10
M  ZZI  30 211
M  ZZM  31 10
M  ZZI  31 211
M  ZZM  32 7
M  ZZI  32 81
M  ZZM  33 7
M  ZZI  33 81
M  ZZM  34 7
M  ZZI  34 81
M  ZZM  35 7
M  ZZI  35 81
M  ZZM  36 5
M  ZZI  36 1
M  ZZM  37 5
M  ZZI  37 1
M  ZZM  38 5
M  ZZI  38 1
M  ZZM  39 5
M  ZZI  39 1
M  ZZM  40 5
M  ZZI  40 1
M  ZZM  41 5
M  ZZI  41 1
M  ZZM  42 5
M  ZZI  42 1
M  ZZM  43 5
M  ZZI  43 1
M  ZZM  44 5
M  ZZI  44 1
M  ZZM  45 5
M  ZZI  45 1
M  ZZM  46 5
M  ZZI  46 1
M  ZZM  47 5
M  ZZI  47 1
M  ZZM  48 5
M  ZZI  48 1
M  ZZM  49 5
M  ZZI  49 1
M  ZZM  50 5
M  ZZI  50 1
M  ZZM  51 5
M  ZZI  51 1
M  ZZM  52 5
M  ZZI  52 1
M  ZZM  53 5
M  ZZI  53 1
M  ZZM  54 5
M  ZZI  54 1
M  ZZM  55 5
M  ZZI  55 1
M  ZZM  56 28
M  ZZI  56 11
M  ZZM  57 28
M  ZZI  57 11
M  ZZM  58 28
M  ZZI  58 11
M  ZZM  59 28
M  ZZI  59 11
M  END
> <IX>
56

> <NAME>
24

> <Score>
-35.892189

> <Natom>
59

> <Nflex>
3

> <Hbond>
-5.691527

> <Hphob>
-6.084559

> <VwInt>
-45.189167

> <Dsolv>
19.324663

> <SolEl>
7.966208

> <Eintl>
10.37

> <RecConf>
ND

> <projPath>
icm/

> <NAME_>
24

$$$$
58
  MOLSOFT 08042117103D

 55 58  0  0  1  0  0  0  0  0999 V2000
  -21.0768   12.9579  -29.2862 C   0  0  0  0  0  0  0  0  0  0  0  0
  -22.2014   13.1524  -28.4939 C   0  0  0  0  0  0  0  0  0  0  0  0
  -20.1527   13.9761  -29.4644 C   0  0  0  0  0  0  0  0  0  0  0  0
  -22.4077   14.3567  -27.8436 C   0  0  0  0  0  0  0  0  0  0  0  0
  -20.4019   15.1950  -28.8602 C   0  0  0  0  0  0  0  0  0  0  0  0
  -21.4928   15.3740  -28.0479 C   0  0  0  0  0  0  0  0  0  0  0  0
  -19.2724   14.1611  -22.3260 C   0  0  0  0  0  0  0  0  0  0  0  0
  -20.2317   13.6483  -21.3981 C   0  0  0  0  0  0  0  0  0  0  0  0
  -19.0253   22.7934  -25.7485 C   0  0  0  0  0  0  0  0  0  0  0  0
  -19.5731   15.2279  -23.0637 C   0  0  0  0  0  0  0  0  0  0  0  0
  -17.6293   24.1329  -24.6138 C   0  0  0  0  0  0  0  0  0  0  0  0
  -18.0662   22.1037  -26.3857 C   0  0  0  0  0  0  0  0  0  0  0  0
  -21.4387   14.2041  -21.2372 C   0  0  0  0  0  0  0  0  0  0  0  0
  -16.6657   22.4936  -26.0794 C   0  0  0  0  0  0  0  0  0  0  0  0
  -21.7756   15.4270  -22.0593 C   0  0  0  0  0  0  0  0  0  0  0  0
  -18.3531   20.9569  -27.2224 C   0  0  0  0  0  0  0  0  0  0  0  0
  -19.2610   20.9655  -28.2135 C   0  0  0  0  0  0  0  0  0  0  0  0
  -19.6279   19.7149  -28.9184 C   0  0  0  0  0  0  0  0  0  0  0  0
  -21.7842   16.7906  -25.0200 C   0  0  0  0  0  0  0  0  0  0  0  0
  -19.6090   16.4522  -28.9761 C   0  0  0  0  0  0  0  0  0  0  0  0
  -21.5386   16.7627  -27.5019 C   0  0  2  0  0  0  0  0  0  0  0  0
  -20.6546   17.4833  -28.5415 C   0  0  1  0  0  0  0  0  0  0  0  0
  -21.0276   17.0789  -23.7308 C   0  0  0  0  0  0  0  0  0  0  0  0
  -18.8579   23.8304  -24.8721 N   0  0  0  0  0  0  0  0  0  0  0  0
  -16.5506   23.5083  -25.1740 N   0  0  0  0  0  0  0  0  0  0  0  0
  -20.7886   15.8670  -22.9435 N   0  0  0  0  0  0  0  0  0  0  0  0
  -22.3901   13.7191  -20.3607 N   0  0  0  0  0  0  0  0  0  0  0  0
  -20.0801   18.7351  -28.0603 N   0  0  0  0  0  0  0  0  0  0  0  0
  -20.9884   16.8418  -26.1501 N   0  0  0  0  0  0  0  0  0  0  0  0
  -15.7087   21.9339  -26.5900 O   0  0  0  0  0  0  0  0  0  0  0  0
  -22.8645   15.9739  -21.9283 O   0  0  0  0  0  0  0  0  0  0  0  0
  -19.5937   19.6309  -30.1362 O   0  0  0  0  0  0  0  0  0  0  0  0
  -22.9794   16.5327  -25.0324 O   0  0  0  0  0  0  0  0  0  0  0  0
  -20.9274   12.0041  -29.7792 H   0  0  0  0  0  0  0  0  0  0  0  0
  -22.9289   12.3570  -28.3835 H   0  0  0  0  0  0  0  0  0  0  0  0
  -19.2753   13.8293  -30.0851 H   0  0  0  0  0  0  0  0  0  0  0  0
  -23.2788   14.5078  -27.2145 H   0  0  0  0  0  0  0  0  0  0  0  0
  -18.3090   13.6717  -22.4153 H   0  0  0  0  0  0  0  0  0  0  0  0
  -19.9546   12.7776  -20.8164 H   0  0  0  0  0  0  0  0  0  0  0  0
  -20.0607   22.5102  -25.8896 H   0  0  0  0  0  0  0  0  0  0  0  0
  -18.8564   15.6348  -23.7691 H   0  0  0  0  0  0  0  0  0  0  0  0
  -17.3654   24.9370  -23.9079 H   0  0  0  0  0  0  0  0  0  0  0  0
  -17.8012   20.0516  -26.9889 H   0  0  0  0  0  0  0  0  0  0  0  0
  -19.7868   21.8593  -28.5253 H   0  0  0  0  0  0  0  0  0  0  0  0
  -18.7456   16.4306  -28.3065 H   0  0  0  0  0  0  0  0  0  0  0  0
  -19.2632   16.6345  -29.9965 H   0  0  0  0  0  0  0  0  0  0  0  0
  -22.5589   17.1647  -27.5072 H   0  0  0  0  0  0  0  0  0  0  0  0
  -21.2709   17.7257  -29.4186 H   0  0  0  0  0  0  0  0  0  0  0  0
  -20.0756   17.5791  -23.9437 H   0  0  0  0  0  0  0  0  0  0  0  0
  -21.6298   17.7816  -23.1452 H   0  0  0  0  0  0  0  0  0  0  0  0
  -15.6212   23.8004  -24.9047 H   0  0  0  0  0  0  0  0  0  0  0  0
  -23.2939   14.1877  -20.2990 H   0  0  0  0  0  0  0  0  0  0  0  0
  -22.1917   12.8840  -19.8092 H   0  0  0  0  0  0  0  0  0  0  0  0
  -20.0999   18.9220  -27.0637 H   0  0  0  0  0  0  0  0  0  0  0  0
  -19.9799   16.8377  -26.0454 H   0  0  0  0  0  0  0  0  0  0  0  0
  1 34  1  0  0  0  0
  1  2  1  0  0  0  0
  1  3  2  0  0  0  0
  2 35  1  0  0  0  0
  2  4  2  0  0  0  0
  3  5  1  0  0  0  0
  3 36  1  0  0  0  0
  4 37  1  0  0  0  0
  4  6  1  0  0  0  0
  5 20  1  0  0  0  0
  5  6  2  0  0  0  0
 21  6  1  0  0  0  0
  7 10  2  0  0  0  0
  7 38  1  0  0  0  0
  7  8  1  0  0  0  0
  8 39  1  0  0  0  0
  8 13  2  0  0  0  0
  9 24  1  0  0  0  0
  9 40  1  0  0  0  0
  9 12  2  0  0  0  0
 10 26  1  0  0  0  0
 10 41  1  0  0  0  0
 11 25  1  0  0  0  0
 11 42  1  0  0  0  0
 11 24  2  0  0  0  0
 12 16  1  0  0  0  0
 12 14  1  0  0  0  0
 13 15  1  0  0  0  0
 13 27  1  0  0  0  0
 14 30  2  0  0  0  0
 14 25  1  0  0  0  0
 15 31  2  0  0  0  0
 15 26  1  0  0  0  0
 16 17  2  0  0  0  0
 16 43  1  0  0  0  0
 17 18  1  0  0  0  0
 17 44  1  0  0  0  0
 18 28  1  0  0  0  0
 18 32  2  0  0  0  0
 19 29  1  0  0  0  0
 19 33  2  0  0  0  0
 19 23  1  0  0  0  0
 22 20  1  0  0  0  0
 20 45  1  0  0  0  0
 20 46  1  0  0  0  0
 21 47  1  0  0  0  0
 21 29  1  0  0  0  0
 21 22  1  0  0  0  0
 22 48  1  0  0  0  0
 22 28  1  0  0  0  0
 23 49  1  0  0  0  0
 23 50  1  0  0  0  0
 23 26  1  0  0  0  0
 25 51  1  0  0  0  0
 27 52  1  0  0  0  0
 27 53  1  0  0  0  0
 28 54  1  0  0  0  0
 29 55  1  0  0  0  0
M  ZZC   1 c1
M  ZZC   2 c2
M  ZZC   3 c3
M  ZZC   4 c4
M  ZZC   5 c5
M  ZZC   6 c6
M  ZZC   7 c7
M  ZZC   8 c8
M  ZZC   9 c9
M  ZZC  10 c10
M  ZZC  11 c11
M  ZZC  12 c12
M  ZZC  13 c13
M  ZZC  14 c14
M  ZZC  15 c15
M  ZZC  16 c16
M  ZZC  17 c17
M  ZZC  18 c18
M  ZZC  19 c19
M  ZZC  20 c20
M  ZZC  21 c21
M  ZZC  22 c22
M  ZZC  23 c23
M  ZZC  24 n1
M  ZZC  25 n2
M  ZZC  26 n3
M  ZZC  27 n4
M  ZZC  28 n5
M  ZZC  29 n6
M  ZZC  30 o1
M  ZZC  31 o2
M  ZZC  32 o3
M  ZZC  33 o4
M  ZZC  34 h1
M  ZZC  35 h2
M  ZZC  36 h3
M  ZZC  37 h4
M  ZZC  38 h5
M  ZZC  39 h6
M  ZZC  40 h7
M  ZZC  41 h8
M  ZZC  42 h9
M  ZZC  43 h10
M  ZZC  44 h11
M  ZZC  45 h12
M  ZZC  46 h13
M  ZZC  47 h14
M  ZZC  48 h15
M  ZZC  49 h16
M  ZZC  50 h17
M  ZZC  51 h18
M  ZZC  52 h19
M  ZZC  53 h20
M  ZZC  54 h21
M  ZZC  55 h22
M  ZZM   1 37
M  ZZI   1 125
M  ZZM   2 37
M  ZZI   2 125
M  ZZM   3 37
M  ZZI   3 125
M  ZZM   4 37
M  ZZI   4 125
M  ZZM   5 37
M  ZZI   5 124
M  ZZM   6 37
M  ZZI   6 124
M  ZZM   7 2
M  ZZI   7 120
M  ZZM   8 2
M  ZZI   8 120
M  ZZM   9 2
M  ZZI   9 120
M  ZZM  10 2
M  ZZI  10 120
M  ZZM  11 3
M  ZZI  11 121
M  ZZM  12 2
M  ZZI  12 120
M  ZZM  13 2
M  ZZI  13 120
M  ZZM  14 3
M  ZZI  14 121
M  ZZM  15 3
M  ZZI  15 121
M  ZZM  16 2
M  ZZI  16 120
M  ZZM  17 2
M  ZZI  17 120
M  ZZM  18 3
M  ZZI  18 121
M  ZZM  19 3
M  ZZI  19 121
M  ZZM  20 1
M  ZZI  20 112
M  ZZM  21 1
M  ZZI  21 113
M  ZZM  22 1
M  ZZI  22 113
M  ZZM  23 1
M  ZZI  23 112
M  ZZM  24 9
M  ZZI  24 220
M  ZZM  25 10
M  ZZI  25 191
M  ZZM  26 10
M  ZZI  26 192
M  ZZM  27 40
M  ZZI  27 224
M  ZZM  28 10
M  ZZI  28 211
M  ZZM  29 10
M  ZZI  29 211
M  ZZM  30 7
M  ZZI  30 81
M  ZZM  31 7
M  ZZI  31 81
M  ZZM  32 7
M  ZZI  32 81
M  ZZM  33 7
M  ZZI  33 81
M  ZZM  34 5
M  ZZI  34 1
M  ZZM  35 5
M  ZZI  35 1
M  ZZM  36 5
M  ZZI  36 1
M  ZZM  37 5
M  ZZI  37 1
M  ZZM  38 5
M  ZZI  38 1
M  ZZM  39 5
M  ZZI  39 1
M  ZZM  40 5
M  ZZI  40 1
M  ZZM  41 5
M  ZZI  41 1
M  ZZM  42 5
M  ZZI  42 1
M  ZZM  43 5
M  ZZI  43 1
M  ZZM  44 5
M  ZZI  44 1
M  ZZM  45 5
M  ZZI  45 1
M  ZZM  46 5
M  ZZI  46 1
M  ZZM  47 5
M  ZZI  47 1
M  ZZM  48 5
M  ZZI  48 1
M  ZZM  49 5
M  ZZI  49 1
M  ZZM  50 5
M  ZZI  50 1
M  ZZM  51 28
M  ZZI  51 11
M  ZZM  52 28
M  ZZI  52 11
M  ZZM  53 28
M  ZZI  53 11
M  ZZM  54 28
M  ZZI  54 11
M  ZZM  55 28
M  ZZI  55 11
M  END
> <IX>
57

> <NAME>
58

> <Score>
-28.920512

> <Natom>
55

> <Nflex>
4

> <Hbond>
-4.766858

> <Hphob>
-6.084406

> <VwInt>
-44.701344

> <Dsolv>
19.916612

> <SolEl>
10.062548

> <Eintl>
13.231325

> <RecConf>
ND

> <projPath>
icm/

> <NAME_>
58

$$$$
39
  MOLSOFT 08042117133D

 59 62  0  0  1  0  0  0  0  0999 V2000
  -20.4308   15.4406  -24.2152 C   0  0  0  0  0  0  0  0  0  0  0  0
  -20.9389   16.6168  -24.7264 C   0  0  0  0  0  0  0  0  0  0  0  0
  -20.1384   14.3965  -25.0689 C   0  0  0  0  0  0  0  0  0  0  0  0
  -21.1430   16.7487  -26.0878 C   0  0  0  0  0  0  0  0  0  0  0  0
  -20.3194   14.5243  -26.4421 C   0  0  0  0  0  0  0  0  0  0  0  0
  -20.8186   15.7212  -26.9729 C   0  0  0  0  0  0  0  0  0  0  0  0
  -17.4955   22.7960  -25.3960 C   0  0  0  0  0  0  0  0  0  0  0  0
  -18.8037   22.6580  -25.1503 C   0  0  0  0  0  0  0  0  0  0  0  0
  -25.2030   16.5104  -32.0666 C   0  0  0  0  0  0  0  0  0  0  0  0
  -23.9547   16.8739  -31.7328 C   0  0  0  0  0  0  0  0  0  0  0  0
  -16.8556   22.1083  -26.5344 C   0  0  0  0  0  0  0  0  0  0  0  0
  -19.6795   21.8285  -26.0075 C   0  0  0  0  0  0  0  0  0  0  0  0
  -23.6365   18.3211  -31.8336 C   0  0  0  0  0  0  0  0  0  0  0  0
  -25.9218   18.5874  -32.5555 C   0  0  0  0  0  0  0  0  0  0  0  0
  -22.9322   15.9358  -31.3220 C   0  0  0  0  0  0  0  0  0  0  0  0
  -23.0977   15.0700  -30.3086 C   0  0  0  0  0  0  0  0  0  0  0  0
  -22.0240   14.1123  -29.9739 C   0  0  0  0  0  0  0  0  0  0  0  0
  -19.4940   19.0300  -28.0015 C   0  0  0  0  0  0  0  0  0  0  0  0
  -20.0433   13.3342  -27.3184 C   0  0  0  0  0  0  0  0  0  0  0  0
  -19.9184   13.7078  -28.7814 C   0  0  0  0  0  0  0  0  0  0  0  0
  -21.0061   15.9047  -28.4701 C   0  0  1  0  0  0  0  0  0  0  0  0
  -26.9659   19.5870  -32.9777 C   0  0  0  0  0  0  0  0  0  0  0  0
  -19.8007   20.5135  -28.1414 C   0  0  0  0  0  0  0  0  0  0  0  0
  -19.9204   16.8200  -29.0865 C   0  0  0  0  0  0  0  0  0  0  0  0
  -26.2213   17.3325  -32.4647 N   0  0  0  0  0  0  0  0  0  0  0  0
  -24.6780   19.0963  -32.2636 N   0  0  0  0  0  0  0  0  0  0  0  0
  -17.7013   21.4683  -27.4068 N   0  0  0  0  0  0  0  0  0  0  0  0
  -19.0816   21.3210  -27.1530 N   0  0  0  0  0  0  0  0  0  0  0  0
  -21.0120   14.5935  -29.1429 N   0  0  0  0  0  0  0  0  0  0  0  0
  -20.1584   18.2514  -28.9376 N   0  0  0  0  0  0  0  0  0  0  0  0
  -15.6434   22.1214  -26.6632 O   0  0  0  0  0  0  0  0  0  0  0  0
  -20.8476   21.6543  -25.6908 O   0  0  0  0  0  0  0  0  0  0  0  0
  -22.5400   18.7740  -31.5359 O   0  0  0  0  0  0  0  0  0  0  0  0
  -22.1041   12.9726  -30.4105 O   0  0  0  0  0  0  0  0  0  0  0  0
  -18.7340   18.5838  -27.1528 O   0  0  0  0  0  0  0  0  0  0  0  0
  -20.2710   15.3336  -23.1469 H   0  0  0  0  0  0  0  0  0  0  0  0
  -21.1775   17.4389  -24.0590 H   0  0  0  0  0  0  0  0  0  0  0  0
  -19.7645   13.4663  -24.6512 H   0  0  0  0  0  0  0  0  0  0  0  0
  -21.5559   17.6813  -26.4585 H   0  0  0  0  0  0  0  0  0  0  0  0
  -16.8550   23.3956  -24.7582 H   0  0  0  0  0  0  0  0  0  0  0  0
  -19.2706   23.1462  -24.3029 H   0  0  0  0  0  0  0  0  0  0  0  0
  -25.4805   15.4635  -32.0403 H   0  0  0  0  0  0  0  0  0  0  0  0
  -21.9934   15.9773  -31.8677 H   0  0  0  0  0  0  0  0  0  0  0  0
  -23.9997   14.9979  -29.7185 H   0  0  0  0  0  0  0  0  0  0  0  0
  -19.1300   12.8322  -26.9959 H   0  0  0  0  0  0  0  0  0  0  0  0
  -20.8770   12.6375  -27.1994 H   0  0  0  0  0  0  0  0  0  0  0  0
  -18.9712   14.2218  -28.9781 H   0  0  0  0  0  0  0  0  0  0  0  0
  -19.9265   12.8049  -29.3996 H   0  0  0  0  0  0  0  0  0  0  0  0
  -21.9849   16.3703  -28.6174 H   0  0  0  0  0  0  0  0  0  0  0  0
  -27.5970   19.8438  -32.1213 H   0  0  0  0  0  0  0  0  0  0  0  0
  -27.5893   19.1909  -33.7853 H   0  0  0  0  0  0  0  0  0  0  0  0
  -26.4655   20.4947  -33.3273 H   0  0  0  0  0  0  0  0  0  0  0  0
  -19.5234   20.8550  -29.1451 H   0  0  0  0  0  0  0  0  0  0  0  0
  -20.8786   20.6583  -28.0144 H   0  0  0  0  0  0  0  0  0  0  0  0
  -18.9276   16.5835  -28.6891 H   0  0  0  0  0  0  0  0  0  0  0  0
  -19.8729   16.6520  -30.1661 H   0  0  0  0  0  0  0  0  0  0  0  0
  -24.5024   20.0890  -32.3483 H   0  0  0  0  0  0  0  0  0  0  0  0
  -17.3034   20.9911  -28.2116 H   0  0  0  0  0  0  0  0  0  0  0  0
  -20.7962   18.6892  -29.5986 H   0  0  0  0  0  0  0  0  0  0  0  0
  1 36  1  0  0  0  0
  1  2  1  0  0  0  0
  1  3  2  0  0  0  0
  2 37  1  0  0  0  0
  2  4  2  0  0  0  0
  3  5  1  0  0  0  0
  3 38  1  0  0  0  0
  4 39  1  0  0  0  0
  4  6  1  0  0  0  0
  5 19  1  0  0  0  0
  5  6  2  0  0  0  0
 21  6  1  0  0  0  0
  7  8  2  0  0  0  0
  7 40  1  0  0  0  0
  7 11  1  0  0  0  0
  8 12  1  0  0  0  0
  8 41  1  0  0  0  0
  9 25  1  0  0  0  0
  9 42  1  0  0  0  0
  9 10  2  0  0  0  0
 10 15  1  0  0  0  0
 10 13  1  0  0  0  0
 11 31  2  0  0  0  0
 11 27  1  0  0  0  0
 12 28  1  0  0  0  0
 12 32  2  0  0  0  0
 13 33  2  0  0  0  0
 13 26  1  0  0  0  0
 14 26  1  0  0  0  0
 14 22  1  0  0  0  0
 14 25  2  0  0  0  0
 15 16  2  0  0  0  0
 15 43  1  0  0  0  0
 16 17  1  0  0  0  0
 16 44  1  0  0  0  0
 17 29  1  0  0  0  0
 17 34  2  0  0  0  0
 18 30  1  0  0  0  0
 18 35  2  0  0  0  0
 18 23  1  0  0  0  0
 19 20  1  0  0  0  0
 19 45  1  0  0  0  0
 19 46  1  0  0  0  0
 20 29  1  0  0  0  0
 20 47  1  0  0  0  0
 20 48  1  0  0  0  0
 21 49  1  0  0  0  0
 21 24  1  0  0  0  0
 21 29  1  0  0  0  0
 22 50  1  0  0  0  0
 22 51  1  0  0  0  0
 22 52  1  0  0  0  0
 23 53  1  0  0  0  0
 23 54  1  0  0  0  0
 23 28  1  0  0  0  0
 24 55  1  0  0  0  0
 24 56  1  0  0  0  0
 24 30  1  0  0  0  0
 26 57  1  0  0  0  0
 27 58  1  0  0  0  0
 27 28  1  0  0  0  0
 30 59  1  0  0  0  0
M  ZZC   1 c1
M  ZZC   2 c2
M  ZZC   3 c3
M  ZZC   4 c4
M  ZZC   5 c5
M  ZZC   6 c6
M  ZZC   7 c7
M  ZZC   8 c8
M  ZZC   9 c9
M  ZZC  10 c10
M  ZZC  11 c11
M  ZZC  12 c12
M  ZZC  13 c13
M  ZZC  14 c14
M  ZZC  15 c15
M  ZZC  16 c16
M  ZZC  17 c17
M  ZZC  18 c18
M  ZZC  19 c19
M  ZZC  20 c20
M  ZZC  21 c21
M  ZZC  22 c22
M  ZZC  23 c23
M  ZZC  24 c24
M  ZZC  25 n1
M  ZZC  26 n2
M  ZZC  27 n3
M  ZZC  28 n4
M  ZZC  29 n5
M  ZZC  30 n6
M  ZZC  31 o1
M  ZZC  32 o2
M  ZZC  33 o3
M  ZZC  34 o4
M  ZZC  35 o5
M  ZZC  36 h1
M  ZZC  37 h2
M  ZZC  38 h3
M  ZZC  39 h4
M  ZZC  40 h5
M  ZZC  41 h6
M  ZZC  42 h7
M  ZZC  43 h8
M  ZZC  44 h9
M  ZZC  45 h10
M  ZZC  46 h11
M  ZZC  47 h12
M  ZZC  48 h13
M  ZZC  49 h14
M  ZZC  50 h15
M  ZZC  51 h16
M  ZZC  52 h17
M  ZZC  53 h18
M  ZZC  54 h19
M  ZZC  55 h20
M  ZZC  56 h21
M  ZZC  57 h22
M  ZZC  58 h23
M  ZZC  59 h24
M  ZZM   1 37
M  ZZI   1 125
M  ZZM   2 37
M  ZZI   2 125
M  ZZM   3 37
M  ZZI   3 125
M  ZZM   4 37
M  ZZI   4 125
M  ZZM   5 37
M  ZZI   5 124
M  ZZM   6 37
M  ZZI   6 124
M  ZZM   7 2
M  ZZI   7 120
M  ZZM   8 2
M  ZZI   8 120
M  ZZM   9 2
M  ZZI   9 120
M  ZZM  10 2
M  ZZI  10 120
M  ZZM  11 3
M  ZZI  11 121
M  ZZM  12 3
M  ZZI  12 121
M  ZZM  13 3
M  ZZI  13 121
M  ZZM  14 3
M  ZZI  14 121
M  ZZM  15 2
M  ZZI  15 120
M  ZZM  16 2
M  ZZI  16 120
M  ZZM  17 3
M  ZZI  17 121
M  ZZM  18 3
M  ZZI  18 121
M  ZZM  19 1
M  ZZI  19 112
M  ZZM  20 1
M  ZZI  20 112
M  ZZM  21 1
M  ZZI  21 113
M  ZZM  22 1
M  ZZI  22 111
M  ZZM  23 1
M  ZZI  23 112
M  ZZM  24 1
M  ZZI  24 112
M  ZZM  25 9
M  ZZI  25 220
M  ZZM  26 10
M  ZZI  26 191
M  ZZM  27 10
M  ZZI  27 191
M  ZZM  28 10
M  ZZI  28 192
M  ZZM  29 10
M  ZZI  29 192
M  ZZM  30 10
M  ZZI  30 211
M  ZZM  31 7
M  ZZI  31 81
M  ZZM  32 7
M  ZZI  32 81
M  ZZM  33 7
M  ZZI  33 81
M  ZZM  34 7
M  ZZI  34 81
M  ZZM  35 7
M  ZZI  35 81
M  ZZM  36 5
M  ZZI  36 1
M  ZZM  37 5
M  ZZI  37 1
M  ZZM  38 5
M  ZZI  38 1
M  ZZM  39 5
M  ZZI  39 1
M  ZZM  40 5
M  ZZI  40 1
M  ZZM  41 5
M  ZZI  41 1
M  ZZM  42 5
M  ZZI  42 1
M  ZZM  43 5
M  ZZI  43 1
M  ZZM  44 5
M  ZZI  44 1
M  ZZM  45 5
M  ZZI  45 1
M  ZZM  46 5
M  ZZI  46 1
M  ZZM  47 5
M  ZZI  47 1
M  ZZM  48 5
M  ZZI  48 1
M  ZZM  49 5
M  ZZI  49 1
M  ZZM  50 5
M  ZZI  50 1
M  ZZM  51 5
M  ZZI  51 1
M  ZZM  52 5
M  ZZI  52 1
M  ZZM  53 5
M  ZZI  53 1
M  ZZM  54 5
M  ZZI  54 1
M  ZZM  55 5
M  ZZI  55 1
M  ZZM  56 5
M  ZZI  56 1
M  ZZM  57 28
M  ZZI  57 11
M  ZZM  58 28
M  ZZI  58 11
M  ZZM  59 28
M  ZZI  59 11
M  END
> <IX>
58

> <NAME>
39

> <Score>
-34.713749

> <Natom>
59

> <Nflex>
5

> <Hbond>
-5.769755

> <Hphob>
-6.621023

> <VwInt>
-44.434224

> <Dsolv>
19.802726

> <SolEl>
11.91525

> <Eintl>
5.063217

> <RecConf>
ND

> <projPath>
icm/

> <NAME_>
39

$$$$
71
  MOLSOFT 08042117153D

 53 56  0  0  1  0  0  0  0  0999 V2000
  -23.7479   15.6922  -31.4365 C   0  0  0  0  0  0  0  0  0  0  0  0
  -22.9151   16.7802  -31.6575 C   0  0  0  0  0  0  0  0  0  0  0  0
  -23.3492   14.6626  -30.5964 C   0  0  0  0  0  0  0  0  0  0  0  0
  -21.6787   16.8587  -31.0357 C   0  0  0  0  0  0  0  0  0  0  0  0
  -22.1239   14.7594  -29.9682 C   0  0  0  0  0  0  0  0  0  0  0  0
  -21.2982   15.8348  -30.1799 C   0  0  0  0  0  0  0  0  0  0  0  0
  -21.2778   14.2729  -20.8518 C   0  0  0  0  0  0  0  0  0  0  0  0
  -22.2624   15.1195  -21.1772 C   0  0  0  0  0  0  0  0  0  0  0  0
  -17.0646   21.1037  -26.9693 C   0  0  0  0  0  0  0  0  0  0  0  0
  -16.6017   22.9613  -25.7950 C   0  0  0  0  0  0  0  0  0  0  0  0
  -18.3624   21.0271  -26.6241 C   0  0  0  0  0  0  0  0  0  0  0  0
  -20.2877   13.8271  -21.8501 C   0  0  0  0  0  0  0  0  0  0  0  0
  -22.4186   15.6528  -22.5490 C   0  0  0  0  0  0  0  0  0  0  0  0
  -18.8449   22.1098  -25.7168 C   0  0  0  0  0  0  0  0  0  0  0  0
  -19.2783   19.9737  -27.0519 C   0  0  0  0  0  0  0  0  0  0  0  0
  -18.9569   18.9407  -27.8518 C   0  0  0  0  0  0  0  0  0  0  0  0
  -19.9382   17.8843  -28.2102 C   0  0  0  0  0  0  0  0  0  0  0  0
  -20.8735   14.7814  -25.8910 C   0  0  0  0  0  0  0  0  0  0  0  0
  -21.5101   13.7675  -29.0363 C   0  0  0  0  0  0  0  0  0  0  0  0
  -20.0191   15.6578  -29.4198 C   0  0  2  0  0  0  0  0  0  0  0  0
  -20.4518   14.6345  -28.3451 C   0  0  1  0  0  0  0  0  0  0  0  0
  -21.4264   15.7313  -24.8375 C   0  0  0  0  0  0  0  0  0  0  0  0
  -16.1446   22.0370  -26.5745 N   0  0  0  0  0  0  0  0  0  0  0  0
  -17.8967   23.0276  -25.3629 N   0  0  0  0  0  0  0  0  0  0  0  0
  -20.4105   14.3692  -23.1007 N   0  0  0  0  0  0  0  0  0  0  0  0
  -21.4739   15.2179  -23.4673 N   0  0  0  0  0  0  0  0  0  0  0  0
  -19.3504   16.8717  -28.9468 N   0  0  0  0  0  0  0  0  0  0  0  0
  -21.0241   15.2768  -27.1645 N   0  0  0  0  0  0  0  0  0  0  0  0
  -19.4216   13.0206  -21.5604 O   0  0  0  0  0  0  0  0  0  0  0  0
  -23.3461   16.4072  -22.8098 O   0  0  0  0  0  0  0  0  0  0  0  0
  -19.9992   22.1695  -25.3221 O   0  0  0  0  0  0  0  0  0  0  0  0
  -21.1087   17.9325  -27.8604 O   0  0  0  0  0  0  0  0  0  0  0  0
  -20.3084   13.7264  -25.6396 O   0  0  0  0  0  0  0  0  0  0  0  0
  -24.7118   15.6486  -31.9341 H   0  0  0  0  0  0  0  0  0  0  0  0
  -23.2308   17.5714  -32.3295 H   0  0  0  0  0  0  0  0  0  0  0  0
  -23.9785   13.7966  -30.4312 H   0  0  0  0  0  0  0  0  0  0  0  0
  -21.0267   17.7057  -31.2215 H   0  0  0  0  0  0  0  0  0  0  0  0
  -21.1782   13.8686  -19.8513 H   0  0  0  0  0  0  0  0  0  0  0  0
  -22.9941   15.4380  -20.4444 H   0  0  0  0  0  0  0  0  0  0  0  0
  -16.6365   20.3607  -27.6269 H   0  0  0  0  0  0  0  0  0  0  0  0
  -15.9619   23.7726  -25.4135 H   0  0  0  0  0  0  0  0  0  0  0  0
  -20.2906   20.0395  -26.6627 H   0  0  0  0  0  0  0  0  0  0  0  0
  -17.9689   18.8228  -28.2674 H   0  0  0  0  0  0  0  0  0  0  0  0
  -22.2429   13.3479  -28.3372 H   0  0  0  0  0  0  0  0  0  0  0  0
  -21.0499   12.9588  -29.6160 H   0  0  0  0  0  0  0  0  0  0  0  0
  -19.3042   15.1713  -30.0912 H   0  0  0  0  0  0  0  0  0  0  0  0
  -19.6022   14.0271  -28.0122 H   0  0  0  0  0  0  0  0  0  0  0  0
  -20.8012   16.6313  -24.8234 H   0  0  0  0  0  0  0  0  0  0  0  0
  -22.4353   16.0407  -25.1322 H   0  0  0  0  0  0  0  0  0  0  0  0
  -18.1838   23.7782  -24.7474 H   0  0  0  0  0  0  0  0  0  0  0  0
  -19.7818   14.0364  -23.8294 H   0  0  0  0  0  0  0  0  0  0  0  0
  -18.3500   16.9164  -29.1132 H   0  0  0  0  0  0  0  0  0  0  0  0
  -21.5491   16.1397  -27.3051 H   0  0  0  0  0  0  0  0  0  0  0  0
  1 34  1  0  0  0  0
  1  2  1  0  0  0  0
  1  3  2  0  0  0  0
  2 35  1  0  0  0  0
  2  4  2  0  0  0  0
  3  5  1  0  0  0  0
  3 36  1  0  0  0  0
  4 37  1  0  0  0  0
  4  6  1  0  0  0  0
  5 19  1  0  0  0  0
  5  6  2  0  0  0  0
 20  6  1  0  0  0  0
  7  8  2  0  0  0  0
  7 38  1  0  0  0  0
  7 12  1  0  0  0  0
  8 13  1  0  0  0  0
  8 39  1  0  0  0  0
  9 23  1  0  0  0  0
  9 40  1  0  0  0  0
  9 11  2  0  0  0  0
 10 24  1  0  0  0  0
 10 41  1  0  0  0  0
 10 23  2  0  0  0  0
 11 15  1  0  0  0  0
 11 14  1  0  0  0  0
 12 29  2  0  0  0  0
 12 25  1  0  0  0  0
 13 26  1  0  0  0  0
 13 30  2  0  0  0  0
 14 31  2  0  0  0  0
 14 24  1  0  0  0  0
 15 16  2  0  0  0  0
 15 42  1  0  0  0  0
 16 17  1  0  0  0  0
 16 43  1  0  0  0  0
 17 27  1  0  0  0  0
 17 32  2  0  0  0  0
 18 28  1  0  0  0  0
 18 33  2  0  0  0  0
 18 22  1  0  0  0  0
 21 19  1  0  0  0  0
 19 44  1  0  0  0  0
 19 45  1  0  0  0  0
 20 46  1  0  0  0  0
 20 21  1  0  0  0  0
 20 27  1  0  0  0  0
 21 47  1  0  0  0  0
 21 28  1  0  0  0  0
 22 48  1  0  0  0  0
 22 49  1  0  0  0  0
 22 26  1  0  0  0  0
 24 50  1  0  0  0  0
 25 51  1  0  0  0  0
 25 26  1  0  0  0  0
 27 52  1  0  0  0  0
 28 53  1  0  0  0  0
M  ZZC   1 c1
M  ZZC   2 c2
M  ZZC   3 c3
M  ZZC   4 c4
M  ZZC   5 c5
M  ZZC   6 c6
M  ZZC   7 c7
M  ZZC   8 c8
M  ZZC   9 c9
M  ZZC  10 c10
M  ZZC  11 c11
M  ZZC  12 c12
M  ZZC  13 c13
M  ZZC  14 c14
M  ZZC  15 c15
M  ZZC  16 c16
M  ZZC  17 c17
M  ZZC  18 c18
M  ZZC  19 c19
M  ZZC  20 c20
M  ZZC  21 c21
M  ZZC  22 c22
M  ZZC  23 n1
M  ZZC  24 n2
M  ZZC  25 n3
M  ZZC  26 n4
M  ZZC  27 n5
M  ZZC  28 n6
M  ZZC  29 o1
M  ZZC  30 o2
M  ZZC  31 o3
M  ZZC  32 o4
M  ZZC  33 o5
M  ZZC  34 h1
M  ZZC  35 h2
M  ZZC  36 h3
M  ZZC  37 h4
M  ZZC  38 h5
M  ZZC  39 h6
M  ZZC  40 h7
M  ZZC  41 h8
M  ZZC  42 h9
M  ZZC  43 h10
M  ZZC  44 h11
M  ZZC  45 h12
M  ZZC  46 h13
M  ZZC  47 h14
M  ZZC  48 h15
M  ZZC  49 h16
M  ZZC  50 h17
M  ZZC  51 h18
M  ZZC  52 h19
M  ZZC  53 h20
M  ZZM   1 37
M  ZZI   1 125
M  ZZM   2 37
M  ZZI   2 125
M  ZZM   3 37
M  ZZI   3 125
M  ZZM   4 37
M  ZZI   4 125
M  ZZM   5 37
M  ZZI   5 124
M  ZZM   6 37
M  ZZI   6 124
M  ZZM   7 2
M  ZZI   7 120
M  ZZM   8 2
M  ZZI   8 120
M  ZZM   9 2
M  ZZI   9 120
M  ZZM  10 3
M  ZZI  10 121
M  ZZM  11 2
M  ZZI  11 120
M  ZZM  12 3
M  ZZI  12 121
M  ZZM  13 3
M  ZZI  13 121
M  ZZM  14 3
M  ZZI  14 121
M  ZZM  15 2
M  ZZI  15 120
M  ZZM  16 2
M  ZZI  16 120
M  ZZM  17 3
M  ZZI  17 121
M  ZZM  18 3
M  ZZI  18 121
M  ZZM  19 1
M  ZZI  19 112
M  ZZM  20 1
M  ZZI  20 113
M  ZZM  21 1
M  ZZI  21 113
M  ZZM  22 1
M  ZZI  22 112
M  ZZM  23 9
M  ZZI  23 220
M  ZZM  24 10
M  ZZI  24 191
M  ZZM  25 10
M  ZZI  25 191
M  ZZM  26 10
M  ZZI  26 192
M  ZZM  27 10
M  ZZI  27 211
M  ZZM  28 10
M  ZZI  28 211
M  ZZM  29 7
M  ZZI  29 81
M  ZZM  30 7
M  ZZI  30 81
M  ZZM  31 7
M  ZZI  31 81
M  ZZM  32 7
M  ZZI  32 81
M  ZZM  33 7
M  ZZI  33 81
M  ZZM  34 5
M  ZZI  34 1
M  ZZM  35 5
M  ZZI  35 1
M  ZZM  36 5
M  ZZI  36 1
M  ZZM  37 5
M  ZZI  37 1
M  ZZM  38 5
M  ZZI  38 1
M  ZZM  39 5
M  ZZI  39 1
M  ZZM  40 5
M  ZZI  40 1
M  ZZM  41 5
M  ZZI  41 1
M  ZZM  42 5
M  ZZI  42 1
M  ZZM  43 5
M  ZZI  43 1
M  ZZM  44 5
M  ZZI  44 1
M  ZZM  45 5
M  ZZI  45 1
M  ZZM  46 5
M  ZZI  46 1
M  ZZM  47 5
M  ZZI  47 1
M  ZZM  48 5
M  ZZI  48 1
M  ZZM  49 5
M  ZZI  49 1
M  ZZM  50 28
M  ZZI  50 11
M  ZZM  51 28
M  ZZI  51 11
M  ZZM  52 28
M  ZZI  52 11
M  ZZM  53 28
M  ZZI  53 11
M  END
> <IX>
59

> <NAME>
71

> <Score>
-41.227015

> <Natom>
53

> <Nflex>
4

> <Hbond>
-7.524049

> <Hphob>
-5.744054

> <VwInt>
-43.564896

> <Dsolv>
16.827278

> <SolEl>
9.105996

> <Eintl>
6.986375

> <RecConf>
ND

> <projPath>
icm/

> <NAME_>
71

$$$$
59
  MOLSOFT 08042117163D

 58 62  0  0  1  0  0  0  0  0999 V2000
  -21.7983   12.7052  -29.4023 C   0  0  0  0  0  0  0  0  0  0  0  0
  -20.4587   13.0313  -29.4524 C   0  0  0  0  0  0  0  0  0  0  0  0
  -22.6497   13.4277  -28.5896 C   0  0  0  0  0  0  0  0  0  0  0  0
  -19.9554   14.0641  -28.6861 C   0  0  0  0  0  0  0  0  0  0  0  0
  -23.0076   15.2396  -27.0251 C   0  0  0  0  0  0  0  0  0  0  0  0
  -22.5201   16.2870  -26.2696 C   0  0  0  0  0  0  0  0  0  0  0  0
  -23.6301   14.9543  -20.2884 C   0  0  0  0  0  0  0  0  0  0  0  0
  -20.3231   15.8448  -27.0979 C   0  0  0  0  0  0  0  0  0  0  0  0
  -20.2954   14.6285  -22.0325 C   0  0  0  0  0  0  0  0  0  0  0  0
  -20.4842   13.2366  -20.2242 C   0  0  0  0  0  0  0  0  0  0  0  0
  -23.8295   14.1026  -19.2280 C   0  0  0  0  0  0  0  0  0  0  0  0
  -22.1631   14.4805  -27.8235 C   0  0  0  0  0  0  0  0  0  0  0  0
  -20.8068   14.7939  -27.8648 C   0  0  0  0  0  0  0  0  0  0  0  0
  -22.3301   14.7037  -20.8077 C   0  0  0  0  0  0  0  0  0  0  0  0
  -21.5417   15.2112  -21.8389 C   0  0  0  0  0  0  0  0  0  0  0  0
  -21.1644   16.6010  -26.2842 C   0  0  0  0  0  0  0  0  0  0  0  0
  -21.7662   13.7168  -20.0177 C   0  0  0  0  0  0  0  0  0  0  0  0
  -16.9210   23.4293  -25.1847 C   0  0  0  0  0  0  0  0  0  0  0  0
  -18.1974   23.5775  -24.8133 C   0  0  0  0  0  0  0  0  0  0  0  0
  -16.5367   22.5504  -26.3013 C   0  0  0  0  0  0  0  0  0  0  0  0
  -19.2745   22.8017  -25.4603 C   0  0  0  0  0  0  0  0  0  0  0  0
  -22.0129   16.3097  -22.7091 C   0  0  0  0  0  0  0  0  0  0  0  0
  -19.4791   19.7735  -26.4074 C   0  0  0  0  0  0  0  0  0  0  0  0
  -19.7331   21.0558  -27.1794 C   0  0  0  0  0  0  0  0  0  0  0  0
  -21.2312   18.1422  -24.1800 C   0  0  0  0  0  0  0  0  0  0  0  0
  -20.5800   17.7717  -25.5252 C   0  0  2  0  0  0  0  0  0  0  0  0
  -19.7635   13.6699  -21.2690 N   0  0  0  0  0  0  0  0  0  0  0  0
  -22.6900   13.3683  -19.0680 N   0  0  0  0  0  0  0  0  0  0  0  0
  -17.5644   22.0487  -27.0458 N   0  0  0  0  0  0  0  0  0  0  0  0
  -18.8912   22.0849  -26.5876 N   0  0  0  0  0  0  0  0  0  0  0  0
  -21.0025   17.1280  -23.1746 N   0  0  0  0  0  0  0  0  0  0  0  0
  -20.5696   18.9370  -26.3840 N   0  0  0  0  0  0  0  0  0  0  0  0
  -15.3690   22.3063  -26.5403 O   0  0  0  0  0  0  0  0  0  0  0  0
  -20.3974   22.8036  -24.9758 O   0  0  0  0  0  0  0  0  0  0  0  0
  -23.2020   16.4477  -22.9661 O   0  0  0  0  0  0  0  0  0  0  0  0
  -18.4165   19.4960  -25.8655 O   0  0  0  0  0  0  0  0  0  0  0  0
  -22.1771   11.8796  -29.9950 H   0  0  0  0  0  0  0  0  0  0  0  0
  -19.7978   12.4727  -30.0967 H   0  0  0  0  0  0  0  0  0  0  0  0
  -23.6973   13.1575  -28.5623 H   0  0  0  0  0  0  0  0  0  0  0  0
  -18.8955   14.2966  -28.7435 H   0  0  0  0  0  0  0  0  0  0  0  0
  -24.0700   15.0367  -26.9897 H   0  0  0  0  0  0  0  0  0  0  0  0
  -23.2258   16.8612  -25.6781 H   0  0  0  0  0  0  0  0  0  0  0  0
  -24.3520   15.6715  -20.6550 H   0  0  0  0  0  0  0  0  0  0  0  0
  -19.2686   16.0983  -27.1525 H   0  0  0  0  0  0  0  0  0  0  0  0
  -19.6517   14.9218  -22.8565 H   0  0  0  0  0  0  0  0  0  0  0  0
  -20.0149   12.5063  -19.5772 H   0  0  0  0  0  0  0  0  0  0  0  0
  -24.6797   13.9628  -18.5748 H   0  0  0  0  0  0  0  0  0  0  0  0
  -16.1173   23.9389  -24.6755 H   0  0  0  0  0  0  0  0  0  0  0  0
  -18.4748   24.2147  -23.9818 H   0  0  0  0  0  0  0  0  0  0  0  0
  -19.4898   20.9179  -28.2388 H   0  0  0  0  0  0  0  0  0  0  0  0
  -20.7846   21.3435  -27.0813 H   0  0  0  0  0  0  0  0  0  0  0  0
  -20.7765   19.0576  -23.7858 H   0  0  0  0  0  0  0  0  0  0  0  0
  -22.3022   18.3455  -24.2796 H   0  0  0  0  0  0  0  0  0  0  0  0
  -19.5401   17.5106  -25.2970 H   0  0  0  0  0  0  0  0  0  0  0  0
  -22.5520   12.6559  -18.3613 H   0  0  0  0  0  0  0  0  0  0  0  0
  -17.3401   21.4686  -27.8495 H   0  0  0  0  0  0  0  0  0  0  0  0
  -20.0589   17.0579  -22.7999 H   0  0  0  0  0  0  0  0  0  0  0  0
  -21.4127   19.1670  -26.9007 H   0  0  0  0  0  0  0  0  0  0  0  0
  1 37  1  0  0  0  0
  1  2  1  0  0  0  0
  1  3  2  0  0  0  0
  2 38  1  0  0  0  0
  2  4  2  0  0  0  0
  3 12  1  0  0  0  0
  3 39  1  0  0  0  0
  4 40  1  0  0  0  0
  4 13  1  0  0  0  0
  5 12  1  0  0  0  0
  5 41  1  0  0  0  0
  5  6  2  0  0  0  0
  6 42  1  0  0  0  0
  6 16  1  0  0  0  0
  7 11  2  0  0  0  0
  7 43  1  0  0  0  0
  7 14  1  0  0  0  0
  8 16  2  0  0  0  0
  8 44  1  0  0  0  0
  8 13  1  0  0  0  0
  9 27  2  0  0  0  0
  9 45  1  0  0  0  0
  9 15  1  0  0  0  0
 10 17  2  0  0  0  0
 10 46  1  0  0  0  0
 10 27  1  0  0  0  0
 11 28  1  0  0  0  0
 11 47  1  0  0  0  0
 12 13  2  0  0  0  0
 14 15  2  0  0  0  0
 14 17  1  0  0  0  0
 15 22  1  0  0  0  0
 26 16  1  0  0  0  0
 17 28  1  0  0  0  0
 18 19  2  0  0  0  0
 18 48  1  0  0  0  0
 18 20  1  0  0  0  0
 19 21  1  0  0  0  0
 19 49  1  0  0  0  0
 20 33  2  0  0  0  0
 20 29  1  0  0  0  0
 21 30  1  0  0  0  0
 21 34  2  0  0  0  0
 22 31  1  0  0  0  0
 22 35  2  0  0  0  0
 23 32  1  0  0  0  0
 23 36  2  0  0  0  0
 23 24  1  0  0  0  0
 24 50  1  0  0  0  0
 24 51  1  0  0  0  0
 24 30  1  0  0  0  0
 26 25  1  0  0  0  0
 25 52  1  0  0  0  0
 25 53  1  0  0  0  0
 25 31  1  0  0  0  0
 26 54  1  0  0  0  0
 26 32  1  0  0  0  0
 28 55  1  0  0  0  0
 29 56  1  0  0  0  0
 29 30  1  0  0  0  0
 31 57  1  0  0  0  0
 32 58  1  0  0  0  0
M  ZZC   1 c1
M  ZZC   2 c2
M  ZZC   3 c3
M  ZZC   4 c4
M  ZZC   5 c5
M  ZZC   6 c6
M  ZZC   7 c7
M  ZZC   8 c8
M  ZZC   9 c9
M  ZZC  10 c10
M  ZZC  11 c11
M  ZZC  12 c12
M  ZZC  13 c13
M  ZZC  14 c14
M  ZZC  15 c15
M  ZZC  16 c16
M  ZZC  17 c17
M  ZZC  18 c18
M  ZZC  19 c19
M  ZZC  20 c20
M  ZZC  21 c21
M  ZZC  22 c22
M  ZZC  23 c23
M  ZZC  24 c24
M  ZZC  25 c25
M  ZZC  26 c26
M  ZZC  27 n1
M  ZZC  28 n2
M  ZZC  29 n3
M  ZZC  30 n4
M  ZZC  31 n5
M  ZZC  32 n6
M  ZZC  33 o1
M  ZZC  34 o2
M  ZZC  35 o3
M  ZZC  36 o4
M  ZZC  37 h1
M  ZZC  38 h2
M  ZZC  39 h3
M  ZZC  40 h4
M  ZZC  41 h5
M  ZZC  42 h6
M  ZZC  43 h7
M  ZZC  44 h8
M  ZZC  45 h9
M  ZZC  46 h10
M  ZZC  47 h11
M  ZZC  48 h12
M  ZZC  49 h13
M  ZZC  50 h14
M  ZZC  51 h15
M  ZZC  52 h16
M  ZZC  53 h17
M  ZZC  54 h18
M  ZZC  55 h19
M  ZZC  56 h20
M  ZZC  57 h21
M  ZZC  58 h22
M  ZZM   1 37
M  ZZI   1 125
M  ZZM   2 37
M  ZZI   2 125
M  ZZM   3 37
M  ZZI   3 125
M  ZZM   4 37
M  ZZI   4 125
M  ZZM   5 37
M  ZZI   5 125
M  ZZM   6 37
M  ZZI   6 125
M  ZZM   7 64
M  ZZI   7 105
M  ZZM   8 37
M  ZZI   8 125
M  ZZM   9 37
M  ZZI   9 125
M  ZZM  10 37
M  ZZI  10 125
M  ZZM  11 63
M  ZZI  11 104
M  ZZM  12 37
M  ZZI  12 124
M  ZZM  13 37
M  ZZI  13 124
M  ZZM  14 64
M  ZZI  14 105
M  ZZM  15 37
M  ZZI  15 124
M  ZZM  16 37
M  ZZI  16 124
M  ZZM  17 63
M  ZZI  17 104
M  ZZM  18 2
M  ZZI  18 120
M  ZZM  19 2
M  ZZI  19 120
M  ZZM  20 3
M  ZZI  20 121
M  ZZM  21 3
M  ZZI  21 121
M  ZZM  22 3
M  ZZI  22 121
M  ZZM  23 3
M  ZZI  23 121
M  ZZM  24 1
M  ZZI  24 112
M  ZZM  25 1
M  ZZI  25 112
M  ZZM  26 1
M  ZZI  26 113
M  ZZM  27 38
M  ZZI  27 223
M  ZZM  28 39
M  ZZI  28 215
M  ZZM  29 10
M  ZZI  29 191
M  ZZM  30 10
M  ZZI  30 192
M  ZZM  31 10
M  ZZI  31 211
M  ZZM  32 10
M  ZZI  32 211
M  ZZM  33 7
M  ZZI  33 81
M  ZZM  34 7
M  ZZI  34 81
M  ZZM  35 7
M  ZZI  35 81
M  ZZM  36 7
M  ZZI  36 81
M  ZZM  37 5
M  ZZI  37 1
M  ZZM  38 5
M  ZZI  38 1
M  ZZM  39 5
M  ZZI  39 1
M  ZZM  40 5
M  ZZI  40 1
M  ZZM  41 5
M  ZZI  41 1
M  ZZM  42 5
M  ZZI  42 1
M  ZZM  43 5
M  ZZI  43 1
M  ZZM  44 5
M  ZZI  44 1
M  ZZM  45 5
M  ZZI  45 1
M  ZZM  46 5
M  ZZI  46 1
M  ZZM  47 5
M  ZZI  47 1
M  ZZM  48 5
M  ZZI  48 1
M  ZZM  49 5
M  ZZI  49 1
M  ZZM  50 5
M  ZZI  50 1
M  ZZM  51 5
M  ZZI  51 1
M  ZZM  52 5
M  ZZI  52 1
M  ZZM  53 5
M  ZZI  53 1
M  ZZM  54 5
M  ZZI  54 1
M  ZZM  55 23
M  ZZI  55 10
M  ZZM  56 28
M  ZZI  56 11
M  ZZM  57 28
M  ZZI  57 11
M  ZZM  58 28
M  ZZI  58 11
M  END
> <IX>
60

> <NAME>
59

> <Score>
-34.896755

> <Natom>
58

> <Nflex>
6

> <Hbond>
-6.295708

> <Hphob>
-6.818224

> <VwInt>
-40.83221

> <Dsolv>
19.396853

> <SolEl>
4.657253

> <Eintl>
8.683966

> <RecConf>
ND

> <projPath>
icm/

> <NAME_>
59

$$$$
3
  MOLSOFT 08042117183D

 60 63  0  0  1  0  0  0  0  0999 V2000
  -27.0563   18.6293  -32.0260 C   0  0  0  0  0  0  0  0  0  0  0  0
  -26.8069   19.2800  -30.8326 C   0  0  0  0  0  0  0  0  0  0  0  0
  -26.1262   17.7428  -32.5355 C   0  0  0  0  0  0  0  0  0  0  0  0
  -25.6284   19.0421  -30.1453 C   0  0  0  0  0  0  0  0  0  0  0  0
  -23.9943   16.6178  -32.3551 C   0  0  0  0  0  0  0  0  0  0  0  0
  -22.8291   16.3621  -31.6589 C   0  0  0  0  0  0  0  0  0  0  0  0
  -23.5159   17.8685  -29.9441 C   0  0  0  0  0  0  0  0  0  0  0  0
  -24.9406   17.4968  -31.8519 C   0  0  0  0  0  0  0  0  0  0  0  0
  -24.6897   18.1412  -30.6435 C   0  0  0  0  0  0  0  0  0  0  0  0
  -22.5625   16.9731  -30.4383 C   0  0  0  0  0  0  0  0  0  0  0  0
  -22.1171   15.5037  -22.4954 C   0  0  0  0  0  0  0  0  0  0  0  0
  -21.2392   14.6082  -22.9740 C   0  0  0  0  0  0  0  0  0  0  0  0
  -20.7936   13.5629  -22.0163 C   0  0  0  0  0  0  0  0  0  0  0  0
  -17.1006   21.5795  -27.3110 C   0  0  0  0  0  0  0  0  0  0  0  0
  -22.3539   14.5302  -20.4706 C   0  0  0  0  0  0  0  0  0  0  0  0
  -18.9613   21.8952  -28.5128 C   0  0  0  0  0  0  0  0  0  0  0  0
  -20.7125   14.6133  -24.3259 C   0  0  0  0  0  0  0  0  0  0  0  0
  -21.4544   14.8295  -25.4274 C   0  0  0  0  0  0  0  0  0  0  0  0
  -20.8024   14.7787  -26.7632 C   0  0  0  0  0  0  0  0  0  0  0  0
  -20.1457   18.7910  -28.9604 C   0  0  0  0  0  0  0  0  0  0  0  0
  -17.9933   20.4055  -27.0029 C   0  0  0  0  0  0  0  0  0  0  0  0
  -22.9803   14.3734  -19.1104 C   0  0  0  0  0  0  0  0  0  0  0  0
  -20.3029   19.8711  -27.8987 C   0  0  0  0  0  0  0  0  0  0  0  0
  -21.1513   15.2603  -29.1651 C   0  0  0  0  0  0  0  0  0  0  0  0
  -21.2431   16.6911  -29.7368 C   0  0  2  0  0  0  0  0  0  0  0  0
  -22.7018   15.5005  -21.2553 N   0  0  0  0  0  0  0  0  0  0  0  0
  -21.4264   13.5791  -20.8092 N   0  0  0  0  0  0  0  0  0  0  0  0
  -17.7660   22.4109  -28.1576 N   0  0  0  0  0  0  0  0  0  0  0  0
  -19.1448   20.7472  -27.8060 N   0  0  0  0  0  0  0  0  0  0  0  0
  -21.6475   15.1378  -27.7964 N   0  0  0  0  0  0  0  0  0  0  0  0
  -20.9543   17.6967  -28.7225 N   0  0  0  0  0  0  0  0  0  0  0  0
  -19.9409   12.7336  -22.2845 O   0  0  0  0  0  0  0  0  0  0  0  0
  -15.9668   21.7435  -26.8899 O   0  0  0  0  0  0  0  0  0  0  0  0
  -19.7179   22.3854  -29.3344 O   0  0  0  0  0  0  0  0  0  0  0  0
  -19.6273   14.4736  -26.8983 O   0  0  0  0  0  0  0  0  0  0  0  0
  -19.4371   18.9042  -29.9503 O   0  0  0  0  0  0  0  0  0  0  0  0
  -27.9815   18.8111  -32.5633 H   0  0  0  0  0  0  0  0  0  0  0  0
  -27.5387   19.9737  -30.4311 H   0  0  0  0  0  0  0  0  0  0  0  0
  -26.3400   17.2393  -33.4715 H   0  0  0  0  0  0  0  0  0  0  0  0
  -25.4572   19.5572  -29.2047 H   0  0  0  0  0  0  0  0  0  0  0  0
  -24.1477   16.1289  -33.3099 H   0  0  0  0  0  0  0  0  0  0  0  0
  -22.1069   15.6815  -32.0954 H   0  0  0  0  0  0  0  0  0  0  0  0
  -23.3471   18.3770  -29.0009 H   0  0  0  0  0  0  0  0  0  0  0  0
  -22.4577   16.3113  -23.1349 H   0  0  0  0  0  0  0  0  0  0  0  0
  -19.6562   14.3733  -24.4155 H   0  0  0  0  0  0  0  0  0  0  0  0
  -22.5150   15.0468  -25.3824 H   0  0  0  0  0  0  0  0  0  0  0  0
  -17.5580   19.4791  -27.3718 H   0  0  0  0  0  0  0  0  0  0  0  0
  -18.2632   20.3684  -25.9431 H   0  0  0  0  0  0  0  0  0  0  0  0
  -22.4476   13.6320  -18.5065 H   0  0  0  0  0  0  0  0  0  0  0  0
  -24.0169   14.0473  -19.2365 H   0  0  0  0  0  0  0  0  0  0  0  0
  -22.9802   15.3361  -18.5912 H   0  0  0  0  0  0  0  0  0  0  0  0
  -21.1771   20.4711  -28.1726 H   0  0  0  0  0  0  0  0  0  0  0  0
  -20.4806   19.4278  -26.9127 H   0  0  0  0  0  0  0  0  0  0  0  0
  -21.6997   14.5358  -29.7756 H   0  0  0  0  0  0  0  0  0  0  0  0
  -20.1017   14.9486  -29.1762 H   0  0  0  0  0  0  0  0  0  0  0  0
  -20.4705   16.7840  -30.5058 H   0  0  0  0  0  0  0  0  0  0  0  0
  -21.1662   12.8494  -20.1559 H   0  0  0  0  0  0  0  0  0  0  0  0
  -17.4069   23.2896  -28.5006 H   0  0  0  0  0  0  0  0  0  0  0  0
  -22.6328   15.3005  -27.6181 H   0  0  0  0  0  0  0  0  0  0  0  0
  -21.4626   17.6252  -27.8482 H   0  0  0  0  0  0  0  0  0  0  0  0
  1 37  1  0  0  0  0
  1  2  1  0  0  0  0
  1  3  2  0  0  0  0
  2 38  1  0  0  0  0
  2  4  2  0  0  0  0
  3  8  1  0  0  0  0
  3 39  1  0  0  0  0
  4 40  1  0  0  0  0
  4  9  1  0  0  0  0
  5  6  2  0  0  0  0
  5 41  1  0  0  0  0
  5  8  1  0  0  0  0
  6 10  1  0  0  0  0
  6 42  1  0  0  0  0
  7  9  1  0  0  0  0
  7 43  1  0  0  0  0
  7 10  2  0  0  0  0
  8  9  2  0  0  0  0
 25 10  1  0  0  0  0
 11 12  2  0  0  0  0
 11 44  1  0  0  0  0
 11 26  1  0  0  0  0
 12 17  1  0  0  0  0
 12 13  1  0  0  0  0
 13 27  1  0  0  0  0
 13 32  2  0  0  0  0
 14 28  1  0  0  0  0
 14 33  2  0  0  0  0
 14 21  1  0  0  0  0
 15 26  2  0  0  0  0
 15 22  1  0  0  0  0
 15 27  1  0  0  0  0
 16 29  1  0  0  0  0
 16 34  2  0  0  0  0
 16 28  1  0  0  0  0
 17 18  2  0  0  0  0
 17 45  1  0  0  0  0
 18 19  1  0  0  0  0
 18 46  1  0  0  0  0
 19 30  1  0  0  0  0
 19 35  2  0  0  0  0
 20 31  1  0  0  0  0
 20 36  2  0  0  0  0
 20 23  1  0  0  0  0
 21 47  1  0  0  0  0
 21 48  1  0  0  0  0
 21 29  1  0  0  0  0
 22 49  1  0  0  0  0
 22 50  1  0  0  0  0
 22 51  1  0  0  0  0
 23 52  1  0  0  0  0
 23 53  1  0  0  0  0
 23 29  1  0  0  0  0
 25 24  1  0  0  0  0
 24 54  1  0  0  0  0
 24 55  1  0  0  0  0
 24 30  1  0  0  0  0
 25 56  1  0  0  0  0
 25 31  1  0  0  0  0
 27 57  1  0  0  0  0
 28 58  1  0  0  0  0
 30 59  1  0  0  0  0
 31 60  1  0  0  0  0
M  ZZC   1 c1
M  ZZC   2 c2
M  ZZC   3 c3
M  ZZC   4 c4
M  ZZC   5 c5
M  ZZC   6 c6
M  ZZC   7 c7
M  ZZC   8 c8
M  ZZC   9 c9
M  ZZC  10 c10
M  ZZC  11 c11
M  ZZC  12 c12
M  ZZC  13 c13
M  ZZC  14 c14
M  ZZC  15 c15
M  ZZC  16 c16
M  ZZC  17 c17
M  ZZC  18 c18
M  ZZC  19 c19
M  ZZC  20 c20
M  ZZC  21 c21
M  ZZC  22 c22
M  ZZC  23 c23
M  ZZC  24 c24
M  ZZC  25 c25
M  ZZC  26 n1
M  ZZC  27 n2
M  ZZC  28 n3
M  ZZC  29 n4
M  ZZC  30 n5
M  ZZC  31 n6
M  ZZC  32 o1
M  ZZC  33 o2
M  ZZC  34 o3
M  ZZC  35 o4
M  ZZC  36 o5
M  ZZC  37 h1
M  ZZC  38 h2
M  ZZC  39 h3
M  ZZC  40 h4
M  ZZC  41 h5
M  ZZC  42 h6
M  ZZC  43 h7
M  ZZC  44 h8
M  ZZC  45 h9
M  ZZC  46 h10
M  ZZC  47 h11
M  ZZC  48 h12
M  ZZC  49 h13
M  ZZC  50 h14
M  ZZC  51 h15
M  ZZC  52 h16
M  ZZC  53 h17
M  ZZC  54 h18
M  ZZC  55 h19
M  ZZC  56 h20
M  ZZC  57 h21
M  ZZC  58 h22
M  ZZC  59 h23
M  ZZC  60 h24
M  ZZM   1 37
M  ZZI   1 125
M  ZZM   2 37
M  ZZI   2 125
M  ZZM   3 37
M  ZZI   3 125
M  ZZM   4 37
M  ZZI   4 125
M  ZZM   5 37
M  ZZI   5 125
M  ZZM   6 37
M  ZZI   6 125
M  ZZM   7 37
M  ZZI   7 125
M  ZZM   8 37
M  ZZI   8 124
M  ZZM   9 37
M  ZZI   9 124
M  ZZM  10 37
M  ZZI  10 124
M  ZZM  11 2
M  ZZI  11 120
M  ZZM  12 2
M  ZZI  12 120
M  ZZM  13 3
M  ZZI  13 121
M  ZZM  14 3
M  ZZI  14 121
M  ZZM  15 3
M  ZZI  15 121
M  ZZM  16 3
M  ZZI  16 121
M  ZZM  17 2
M  ZZI  17 120
M  ZZM  18 2
M  ZZI  18 120
M  ZZM  19 3
M  ZZI  19 121
M  ZZM  20 3
M  ZZI  20 121
M  ZZM  21 1
M  ZZI  21 112
M  ZZM  22 1
M  ZZI  22 111
M  ZZM  23 1
M  ZZI  23 112
M  ZZM  24 1
M  ZZI  24 112
M  ZZM  25 1
M  ZZI  25 113
M  ZZM  26 9
M  ZZI  26 220
M  ZZM  27 10
M  ZZI  27 191
M  ZZM  28 10
M  ZZI  28 191
M  ZZM  29 10
M  ZZI  29 192
M  ZZM  30 10
M  ZZI  30 211
M  ZZM  31 10
M  ZZI  31 211
M  ZZM  32 7
M  ZZI  32 81
M  ZZM  33 7
M  ZZI  33 81
M  ZZM  34 7
M  ZZI  34 81
M  ZZM  35 7
M  ZZI  35 81
M  ZZM  36 7
M  ZZI  36 81
M  ZZM  37 5
M  ZZI  37 1
M  ZZM  38 5
M  ZZI  38 1
M  ZZM  39 5
M  ZZI  39 1
M  ZZM  40 5
M  ZZI  40 1
M  ZZM  41 5
M  ZZI  41 1
M  ZZM  42 5
M  ZZI  42 1
M  ZZM  43 5
M  ZZI  43 1
M  ZZM  44 5
M  ZZI  44 1
M  ZZM  45 5
M  ZZI  45 1
M  ZZM  46 5
M  ZZI  46 1
M  ZZM  47 5
M  ZZI  47 1
M  ZZM  48 5
M  ZZI  48 1
M  ZZM  49 5
M  ZZI  49 1
M  ZZM  50 5
M  ZZI  50 1
M  ZZM  51 5
M  ZZI  51 1
M  ZZM  52 5
M  ZZI  52 1
M  ZZM  53 5
M  ZZI  53 1
M  ZZM  54 5
M  ZZI  54 1
M  ZZM  55 5
M  ZZI  55 1
M  ZZM  56 5
M  ZZI  56 1
M  ZZM  57 28
M  ZZI  57 11
M  ZZM  58 28
M  ZZI  58 11
M  ZZM  59 28
M  ZZI  59 11
M  ZZM  60 28
M  ZZI  60 11
M  END
> <IX>
61

> <NAME>
3

> <Score>
-29.923751

> <Natom>
60

> <Nflex>
6

> <Hbond>
-9.785012

> <Hphob>
-6.55823

> <VwInt>
-39.038662

> <Dsolv>
25.195409

> <SolEl>
14.944251

> <Eintl>
9.842074

> <RecConf>
ND

> <projPath>
icm/

> <NAME_>
3

$$$$
70
  MOLSOFT 08042117203D

 53 56  0  0  1  0  0  0  0  0999 V2000
  -21.2255   12.5313  -29.6777 C   0  0  0  0  0  0  0  0  0  0  0  0
  -22.5395   12.8676  -29.3970 C   0  0  0  0  0  0  0  0  0  0  0  0
  -20.2015   13.4523  -29.5322 C   0  0  0  0  0  0  0  0  0  0  0  0
  -22.8535   14.1409  -28.9601 C   0  0  0  0  0  0  0  0  0  0  0  0
  -20.5312   14.7217  -29.1056 C   0  0  0  0  0  0  0  0  0  0  0  0
  -21.8278   15.0555  -28.8142 C   0  0  0  0  0  0  0  0  0  0  0  0
  -21.2762   14.0956  -21.0679 C   0  0  0  0  0  0  0  0  0  0  0  0
  -22.2926   14.9642  -21.0180 C   0  0  0  0  0  0  0  0  0  0  0  0
  -19.0175   22.8195  -25.6754 C   0  0  0  0  0  0  0  0  0  0  0  0
  -17.6174   24.0875  -24.4678 C   0  0  0  0  0  0  0  0  0  0  0  0
  -18.0616   22.2037  -26.3894 C   0  0  0  0  0  0  0  0  0  0  0  0
  -20.4687   13.9232  -22.2909 C   0  0  0  0  0  0  0  0  0  0  0  0
  -22.6725   15.7908  -22.1840 C   0  0  0  0  0  0  0  0  0  0  0  0
  -16.6605   22.5900  -26.0840 C   0  0  0  0  0  0  0  0  0  0  0  0
  -18.3507   21.2312  -27.4224 C   0  0  0  0  0  0  0  0  0  0  0  0
  -19.1646   20.1818  -27.2227 C   0  0  0  0  0  0  0  0  0  0  0  0
  -19.4936   19.2449  -28.3278 C   0  0  0  0  0  0  0  0  0  0  0  0
  -21.6122   15.9782  -25.8534 C   0  0  0  0  0  0  0  0  0  0  0  0
  -19.5967   15.8485  -28.8384 C   0  0  0  0  0  0  0  0  0  0  0  0
  -21.9346   16.4613  -28.3297 C   0  0  2  0  0  0  0  0  0  0  0  0
  -20.5582   17.0341  -28.7409 C   0  0  1  0  0  0  0  0  0  0  0  0
  -22.1058   16.4686  -24.5007 C   0  0  0  0  0  0  0  0  0  0  0  0
  -18.8453   23.7637  -24.7009 N   0  0  0  0  0  0  0  0  0  0  0  0
  -16.5435   23.5474  -25.1191 N   0  0  0  0  0  0  0  0  0  0  0  0
  -20.7901   14.7429  -23.3464 N   0  0  0  0  0  0  0  0  0  0  0  0
  -21.8979   15.6202  -23.3209 N   0  0  0  0  0  0  0  0  0  0  0  0
  -20.0674   18.0865  -27.8580 N   0  0  0  0  0  0  0  0  0  0  0  0
  -22.2866   16.5743  -26.9108 N   0  0  0  0  0  0  0  0  0  0  0  0
  -19.5856   13.0831  -22.3261 O   0  0  0  0  0  0  0  0  0  0  0  0
  -23.6373   16.5397  -22.1153 O   0  0  0  0  0  0  0  0  0  0  0  0
  -15.7043   22.0597  -26.6278 O   0  0  0  0  0  0  0  0  0  0  0  0
  -19.2819   19.4972  -29.5043 O   0  0  0  0  0  0  0  0  0  0  0  0
  -20.6657   15.2139  -25.9712 O   0  0  0  0  0  0  0  0  0  0  0  0
  -21.0022   11.5279  -30.0020 H   0  0  0  0  0  0  0  0  0  0  0  0
  -23.3193   12.1238  -29.5101 H   0  0  0  0  0  0  0  0  0  0  0  0
  -19.1703   13.1859  -29.7364 H   0  0  0  0  0  0  0  0  0  0  0  0
  -23.8748   14.4157  -28.7322 H   0  0  0  0  0  0  0  0  0  0  0  0
  -21.0122   13.4780  -20.2169 H   0  0  0  0  0  0  0  0  0  0  0  0
  -22.8879   15.0819  -20.1204 H   0  0  0  0  0  0  0  0  0  0  0  0
  -20.0554   22.5759  -25.8621 H   0  0  0  0  0  0  0  0  0  0  0  0
  -17.3506   24.8404  -23.7082 H   0  0  0  0  0  0  0  0  0  0  0  0
  -17.8650   21.3888  -28.3815 H   0  0  0  0  0  0  0  0  0  0  0  0
  -19.6273   20.0002  -26.2590 H   0  0  0  0  0  0  0  0  0  0  0  0
  -19.0586   15.6753  -27.9035 H   0  0  0  0  0  0  0  0  0  0  0  0
  -18.8727   15.9835  -29.6475 H   0  0  0  0  0  0  0  0  0  0  0  0
  -22.7231   16.9848  -28.8829 H   0  0  0  0  0  0  0  0  0  0  0  0
  -20.6576   17.4562  -29.7495 H   0  0  0  0  0  0  0  0  0  0  0  0
  -21.6106   17.4240  -24.2960 H   0  0  0  0  0  0  0  0  0  0  0  0
  -23.1769   16.6842  -24.5745 H   0  0  0  0  0  0  0  0  0  0  0  0
  -15.6133   23.8410  -24.8548 H   0  0  0  0  0  0  0  0  0  0  0  0
  -20.2728   14.6349  -24.2171 H   0  0  0  0  0  0  0  0  0  0  0  0
  -20.1279   17.9292  -26.8591 H   0  0  0  0  0  0  0  0  0  0  0  0
  -23.0773   17.1755  -26.7030 H   0  0  0  0  0  0  0  0  0  0  0  0
  1 34  1  0  0  0  0
  1  2  1  0  0  0  0
  1  3  2  0  0  0  0
  2 35  1  0  0  0  0
  2  4  2  0  0  0  0
  3  5  1  0  0  0  0
  3 36  1  0  0  0  0
  4 37  1  0  0  0  0
  4  6  1  0  0  0  0
  5 19  1  0  0  0  0
  5  6  2  0  0  0  0
 20  6  1  0  0  0  0
  7  8  2  0  0  0  0
  7 38  1  0  0  0  0
  7 12  1  0  0  0  0
  8 13  1  0  0  0  0
  8 39  1  0  0  0  0
  9 23  1  0  0  0  0
  9 40  1  0  0  0  0
  9 11  2  0  0  0  0
 10 24  1  0  0  0  0
 10 41  1  0  0  0  0
 10 23  2  0  0  0  0
 11 15  1  0  0  0  0
 11 14  1  0  0  0  0
 12 29  2  0  0  0  0
 12 25  1  0  0  0  0
 13 26  1  0  0  0  0
 13 30  2  0  0  0  0
 14 31  2  0  0  0  0
 14 24  1  0  0  0  0
 15 16  2  0  0  0  0
 15 42  1  0  0  0  0
 16 17  1  0  0  0  0
 16 43  1  0  0  0  0
 17 27  1  0  0  0  0
 17 32  2  0  0  0  0
 18 28  1  0  0  0  0
 18 33  2  0  0  0  0
 18 22  1  0  0  0  0
 21 19  1  0  0  0  0
 19 44  1  0  0  0  0
 19 45  1  0  0  0  0
 20 46  1  0  0  0  0
 20 28  1  0  0  0  0
 20 21  1  0  0  0  0
 21 47  1  0  0  0  0
 21 27  1  0  0  0  0
 22 48  1  0  0  0  0
 22 49  1  0  0  0  0
 22 26  1  0  0  0  0
 24 50  1  0  0  0  0
 25 51  1  0  0  0  0
 25 26  1  0  0  0  0
 27 52  1  0  0  0  0
 28 53  1  0  0  0  0
M  ZZC   1 c1
M  ZZC   2 c2
M  ZZC   3 c3
M  ZZC   4 c4
M  ZZC   5 c5
M  ZZC   6 c6
M  ZZC   7 c7
M  ZZC   8 c8
M  ZZC   9 c9
M  ZZC  10 c10
M  ZZC  11 c11
M  ZZC  12 c12
M  ZZC  13 c13
M  ZZC  14 c14
M  ZZC  15 c15
M  ZZC  16 c16
M  ZZC  17 c17
M  ZZC  18 c18
M  ZZC  19 c19
M  ZZC  20 c20
M  ZZC  21 c21
M  ZZC  22 c22
M  ZZC  23 n1
M  ZZC  24 n2
M  ZZC  25 n3
M  ZZC  26 n4
M  ZZC  27 n5
M  ZZC  28 n6
M  ZZC  29 o1
M  ZZC  30 o2
M  ZZC  31 o3
M  ZZC  32 o4
M  ZZC  33 o5
M  ZZC  34 h1
M  ZZC  35 h2
M  ZZC  36 h3
M  ZZC  37 h4
M  ZZC  38 h5
M  ZZC  39 h6
M  ZZC  40 h7
M  ZZC  41 h8
M  ZZC  42 h9
M  ZZC  43 h10
M  ZZC  44 h11
M  ZZC  45 h12
M  ZZC  46 h13
M  ZZC  47 h14
M  ZZC  48 h15
M  ZZC  49 h16
M  ZZC  50 h17
M  ZZC  51 h18
M  ZZC  52 h19
M  ZZC  53 h20
M  ZZM   1 37
M  ZZI   1 125
M  ZZM   2 37
M  ZZI   2 125
M  ZZM   3 37
M  ZZI   3 125
M  ZZM   4 37
M  ZZI   4 125
M  ZZM   5 37
M  ZZI   5 124
M  ZZM   6 37
M  ZZI   6 124
M  ZZM   7 2
M  ZZI   7 120
M  ZZM   8 2
M  ZZI   8 120
M  ZZM   9 2
M  ZZI   9 120
M  ZZM  10 3
M  ZZI  10 121
M  ZZM  11 2
M  ZZI  11 120
M  ZZM  12 3
M  ZZI  12 121
M  ZZM  13 3
M  ZZI  13 121
M  ZZM  14 3
M  ZZI  14 121
M  ZZM  15 2
M  ZZI  15 120
M  ZZM  16 2
M  ZZI  16 120
M  ZZM  17 3
M  ZZI  17 121
M  ZZM  18 3
M  ZZI  18 121
M  ZZM  19 1
M  ZZI  19 112
M  ZZM  20 1
M  ZZI  20 113
M  ZZM  21 1
M  ZZI  21 113
M  ZZM  22 1
M  ZZI  22 112
M  ZZM  23 9
M  ZZI  23 220
M  ZZM  24 10
M  ZZI  24 191
M  ZZM  25 10
M  ZZI  25 191
M  ZZM  26 10
M  ZZI  26 192
M  ZZM  27 10
M  ZZI  27 211
M  ZZM  28 10
M  ZZI  28 211
M  ZZM  29 7
M  ZZI  29 81
M  ZZM  30 7
M  ZZI  30 81
M  ZZM  31 7
M  ZZI  31 81
M  ZZM  32 7
M  ZZI  32 81
M  ZZM  33 7
M  ZZI  33 81
M  ZZM  34 5
M  ZZI  34 1
M  ZZM  35 5
M  ZZI  35 1
M  ZZM  36 5
M  ZZI  36 1
M  ZZM  37 5
M  ZZI  37 1
M  ZZM  38 5
M  ZZI  38 1
M  ZZM  39 5
M  ZZI  39 1
M  ZZM  40 5
M  ZZI  40 1
M  ZZM  41 5
M  ZZI  41 1
M  ZZM  42 5
M  ZZI  42 1
M  ZZM  43 5
M  ZZI  43 1
M  ZZM  44 5
M  ZZI  44 1
M  ZZM  45 5
M  ZZI  45 1
M  ZZM  46 5
M  ZZI  46 1
M  ZZM  47 5
M  ZZI  47 1
M  ZZM  48 5
M  ZZI  48 1
M  ZZM  49 5
M  ZZI  49 1
M  ZZM  50 28
M  ZZI  50 11
M  ZZM  51 28
M  ZZI  51 11
M  ZZM  52 28
M  ZZI  52 11
M  ZZM  53 28
M  ZZI  53 11
M  END
> <IX>
62

> <NAME>
70

> <Score>
-30.016802

> <Natom>
53

> <Nflex>
4

> <Hbond>
-5.619373

> <Hphob>
-5.472577

> <VwInt>
-39.813846

> <Dsolv>
17.987065

> <SolEl>
9.686385

> <Eintl>
8.995621

> <RecConf>
ND

> <projPath>
icm/

> <NAME_>
70

$$$$
72
  MOLSOFT 08042117223D

 53 56  0  0  1  0  0  0  0  0999 V2000
  -22.6087   14.4536  -29.7938 C   0  0  0  0  0  0  0  0  0  0  0  0
  -21.7581   15.4277  -30.3031 C   0  0  0  0  0  0  0  0  0  0  0  0
  -22.5992   14.1501  -28.4414 C   0  0  0  0  0  0  0  0  0  0  0  0
  -20.8763   16.1029  -29.4710 C   0  0  0  0  0  0  0  0  0  0  0  0
  -21.7259   14.8409  -27.6195 C   0  0  0  0  0  0  0  0  0  0  0  0
  -20.8772   15.7965  -28.1188 C   0  0  0  0  0  0  0  0  0  0  0  0
  -22.1553   15.7000  -21.3835 C   0  0  0  0  0  0  0  0  0  0  0  0
  -23.2227   15.2822  -20.6899 C   0  0  0  0  0  0  0  0  0  0  0  0
  -17.3545   23.1427  -25.3917 C   0  0  0  0  0  0  0  0  0  0  0  0
  -18.5969   23.2779  -24.9120 C   0  0  0  0  0  0  0  0  0  0  0  0
  -20.8255   13.8884  -20.5733 C   0  0  0  0  0  0  0  0  0  0  0  0
  -20.9071   14.9807  -21.3401 C   0  0  0  0  0  0  0  0  0  0  0  0
  -23.1346   14.0500  -19.8655 C   0  0  0  0  0  0  0  0  0  0  0  0
  -16.9871   22.0154  -26.2716 C   0  0  0  0  0  0  0  0  0  0  0  0
  -19.6674   22.3011  -25.2122 C   0  0  0  0  0  0  0  0  0  0  0  0
  -19.8228   14.8789  -23.5286 C   0  0  0  0  0  0  0  0  0  0  0  0
  -19.6794   18.7505  -26.2211 C   0  0  0  0  0  0  0  0  0  0  0  0
  -21.5829   14.7129  -26.1437 C   0  0  0  0  0  0  0  0  0  0  0  0
  -20.0448   16.4163  -27.0399 C   0  0  2  0  0  0  0  0  0  0  0  0
  -20.2088   15.3524  -25.9245 C   0  0  1  0  0  0  0  0  0  0  0  0
  -19.7467   15.4898  -22.1494 C   0  0  0  0  0  0  0  0  0  0  0  0
  -20.2257   20.1625  -26.3922 C   0  0  0  0  0  0  0  0  0  0  0  0
  -21.9031   13.4400  -19.8589 N   0  0  0  0  0  0  0  0  0  0  0  0
  -18.0000   21.1392  -26.5795 N   0  0  0  0  0  0  0  0  0  0  0  0
  -19.2882   21.2233  -26.0004 N   0  0  0  0  0  0  0  0  0  0  0  0
  -20.5097   17.7733  -26.7489 N   0  0  0  0  0  0  0  0  0  0  0  0
  -20.0119   15.7954  -24.5477 N   0  0  0  0  0  0  0  0  0  0  0  0
  -24.1022   13.6324  -19.2494 O   0  0  0  0  0  0  0  0  0  0  0  0
  -15.8425   21.8952  -26.6763 O   0  0  0  0  0  0  0  0  0  0  0  0
  -20.7957   22.4839  -24.7785 O   0  0  0  0  0  0  0  0  0  0  0  0
  -19.7435   13.6691  -23.6884 O   0  0  0  0  0  0  0  0  0  0  0  0
  -18.6019   18.5107  -25.6953 O   0  0  0  0  0  0  0  0  0  0  0  0
  -23.2890   13.9321  -30.4589 H   0  0  0  0  0  0  0  0  0  0  0  0
  -21.7841   15.6660  -31.3622 H   0  0  0  0  0  0  0  0  0  0  0  0
  -23.2634   13.3921  -28.0383 H   0  0  0  0  0  0  0  0  0  0  0  0
  -20.2081   16.8583  -29.8729 H   0  0  0  0  0  0  0  0  0  0  0  0
  -22.2215   16.5977  -21.9894 H   0  0  0  0  0  0  0  0  0  0  0  0
  -24.1699   15.8073  -20.7070 H   0  0  0  0  0  0  0  0  0  0  0  0
  -16.5731   23.8553  -25.1546 H   0  0  0  0  0  0  0  0  0  0  0  0
  -18.8636   24.1129  -24.2748 H   0  0  0  0  0  0  0  0  0  0  0  0
  -19.9204   13.2944  -20.4895 H   0  0  0  0  0  0  0  0  0  0  0  0
  -22.3827   15.2615  -25.6325 H   0  0  0  0  0  0  0  0  0  0  0  0
  -21.5973   13.6673  -25.8205 H   0  0  0  0  0  0  0  0  0  0  0  0
  -19.0006   16.4783  -27.3551 H   0  0  0  0  0  0  0  0  0  0  0  0
  -19.4614   14.5676  -26.1061 H   0  0  0  0  0  0  0  0  0  0  0  0
  -18.7933   15.1756  -21.7151 H   0  0  0  0  0  0  0  0  0  0  0  0
  -19.7408   16.5839  -22.1879 H   0  0  0  0  0  0  0  0  0  0  0  0
  -20.4803   20.3218  -27.4460 H   0  0  0  0  0  0  0  0  0  0  0  0
  -21.1481   20.2503  -25.8091 H   0  0  0  0  0  0  0  0  0  0  0  0
  -21.8006   12.5954  -19.3082 H   0  0  0  0  0  0  0  0  0  0  0  0
  -17.7828   20.3397  -27.1676 H   0  0  0  0  0  0  0  0  0  0  0  0
  -21.4352   18.0314  -27.0776 H   0  0  0  0  0  0  0  0  0  0  0  0
  -19.9943   16.7906  -24.3469 H   0  0  0  0  0  0  0  0  0  0  0  0
  1 33  1  0  0  0  0
  1  2  1  0  0  0  0
  1  3  2  0  0  0  0
  2 34  1  0  0  0  0
  2  4  2  0  0  0  0
  3  5  1  0  0  0  0
  3 35  1  0  0  0  0
  4 36  1  0  0  0  0
  4  6  1  0  0  0  0
  5 18  1  0  0  0  0
  5  6  2  0  0  0  0
 19  6  1  0  0  0  0
  7  8  2  0  0  0  0
  7 37  1  0  0  0  0
  7 12  1  0  0  0  0
  8 13  1  0  0  0  0
  8 38  1  0  0  0  0
  9 10  2  0  0  0  0
  9 39  1  0  0  0  0
  9 14  1  0  0  0  0
 10 15  1  0  0  0  0
 10 40  1  0  0  0  0
 11 12  2  0  0  0  0
 11 41  1  0  0  0  0
 11 23  1  0  0  0  0
 12 21  1  0  0  0  0
 13 23  1  0  0  0  0
 13 28  2  0  0  0  0
 14 29  2  0  0  0  0
 14 24  1  0  0  0  0
 15 25  1  0  0  0  0
 15 30  2  0  0  0  0
 16 27  1  0  0  0  0
 16 31  2  0  0  0  0
 16 21  1  0  0  0  0
 17 26  1  0  0  0  0
 17 32  2  0  0  0  0
 17 22  1  0  0  0  0
 20 18  1  0  0  0  0
 18 42  1  0  0  0  0
 18 43  1  0  0  0  0
 19 44  1  0  0  0  0
 19 26  1  0  0  0  0
 19 20  1  0  0  0  0
 20 45  1  0  0  0  0
 20 27  1  0  0  0  0
 21 46  1  0  0  0  0
 21 47  1  0  0  0  0
 22 48  1  0  0  0  0
 22 49  1  0  0  0  0
 22 25  1  0  0  0  0
 23 50  1  0  0  0  0
 24 51  1  0  0  0  0
 24 25  1  0  0  0  0
 26 52  1  0  0  0  0
 27 53  1  0  0  0  0
M  ZZC   1 c1
M  ZZC   2 c2
M  ZZC   3 c3
M  ZZC   4 c4
M  ZZC   5 c5
M  ZZC   6 c6
M  ZZC   7 c7
M  ZZC   8 c8
M  ZZC   9 c9
M  ZZC  10 c10
M  ZZC  11 c11
M  ZZC  12 c12
M  ZZC  13 c13
M  ZZC  14 c14
M  ZZC  15 c15
M  ZZC  16 c16
M  ZZC  17 c17
M  ZZC  18 c18
M  ZZC  19 c19
M  ZZC  20 c20
M  ZZC  21 c21
M  ZZC  22 c22
M  ZZC  23 n1
M  ZZC  24 n2
M  ZZC  25 n3
M  ZZC  26 n4
M  ZZC  27 n5
M  ZZC  28 o1
M  ZZC  29 o2
M  ZZC  30 o3
M  ZZC  31 o4
M  ZZC  32 o5
M  ZZC  33 h1
M  ZZC  34 h2
M  ZZC  35 h3
M  ZZC  36 h4
M  ZZC  37 h5
M  ZZC  38 h6
M  ZZC  39 h7
M  ZZC  40 h8
M  ZZC  41 h9
M  ZZC  42 h10
M  ZZC  43 h11
M  ZZC  44 h12
M  ZZC  45 h13
M  ZZC  46 h14
M  ZZC  47 h15
M  ZZC  48 h16
M  ZZC  49 h17
M  ZZC  50 h18
M  ZZC  51 h19
M  ZZC  52 h20
M  ZZC  53 h21
M  ZZM   1 37
M  ZZI   1 125
M  ZZM   2 37
M  ZZI   2 125
M  ZZM   3 37
M  ZZI   3 125
M  ZZM   4 37
M  ZZI   4 125
M  ZZM   5 37
M  ZZI   5 124
M  ZZM   6 37
M  ZZI   6 124
M  ZZM   7 2
M  ZZI   7 120
M  ZZM   8 2
M  ZZI   8 120
M  ZZM   9 2
M  ZZI   9 120
M  ZZM  10 2
M  ZZI  10 120
M  ZZM  11 2
M  ZZI  11 120
M  ZZM  12 2
M  ZZI  12 120
M  ZZM  13 3
M  ZZI  13 121
M  ZZM  14 3
M  ZZI  14 121
M  ZZM  15 3
M  ZZI  15 121
M  ZZM  16 3
M  ZZI  16 121
M  ZZM  17 3
M  ZZI  17 121
M  ZZM  18 1
M  ZZI  18 112
M  ZZM  19 1
M  ZZI  19 113
M  ZZM  20 1
M  ZZI  20 113
M  ZZM  21 1
M  ZZI  21 112
M  ZZM  22 1
M  ZZI  22 112
M  ZZM  23 10
M  ZZI  23 191
M  ZZM  24 10
M  ZZI  24 191
M  ZZM  25 10
M  ZZI  25 192
M  ZZM  26 10
M  ZZI  26 211
M  ZZM  27 10
M  ZZI  27 211
M  ZZM  28 7
M  ZZI  28 81
M  ZZM  29 7
M  ZZI  29 81
M  ZZM  30 7
M  ZZI  30 81
M  ZZM  31 7
M  ZZI  31 81
M  ZZM  32 7
M  ZZI  32 81
M  ZZM  33 5
M  ZZI  33 1
M  ZZM  34 5
M  ZZI  34 1
M  ZZM  35 5
M  ZZI  35 1
M  ZZM  36 5
M  ZZI  36 1
M  ZZM  37 5
M  ZZI  37 1
M  ZZM  38 5
M  ZZI  38 1
M  ZZM  39 5
M  ZZI  39 1
M  ZZM  40 5
M  ZZI  40 1
M  ZZM  41 5
M  ZZI  41 1
M  ZZM  42 5
M  ZZI  42 1
M  ZZM  43 5
M  ZZI  43 1
M  ZZM  44 5
M  ZZI  44 1
M  ZZM  45 5
M  ZZI  45 1
M  ZZM  46 5
M  ZZI  46 1
M  ZZM  47 5
M  ZZI  47 1
M  ZZM  48 5
M  ZZI  48 1
M  ZZM  49 5
M  ZZI  49 1
M  ZZM  50 28
M  ZZI  50 11
M  ZZM  51 28
M  ZZI  51 11
M  ZZM  52 28
M  ZZI  52 11
M  ZZM  53 28
M  ZZI  53 11
M  END
> <IX>
63

> <NAME>
72

> <Score>
-35.230326

> <Natom>
53

> <Nflex>
6

> <Hbond>
-6.048633

> <Hphob>
-6.118426

> <VwInt>
-40.339623

> <Dsolv>
16.673387

> <SolEl>
6.522177

> <Eintl>
6.836676

> <RecConf>
ND

> <projPath>
icm/

> <NAME_>
72

$$$$
73
  MOLSOFT 08042117243D

 56 59  0  0  1  0  0  0  0  0999 V2000
  -25.5464   17.5951  -31.6038 C   0  0  0  0  0  0  0  0  0  0  0  0
  -25.1400   18.7818  -31.0085 C   0  0  0  0  0  0  0  0  0  0  0  0
  -24.7026   16.4974  -31.6167 C   0  0  0  0  0  0  0  0  0  0  0  0
  -23.8825   18.8886  -30.4315 C   0  0  0  0  0  0  0  0  0  0  0  0
  -21.1299   15.5393  -23.5602 C   0  0  0  0  0  0  0  0  0  0  0  0
  -19.9891   13.5120  -23.9933 C   0  0  0  0  0  0  0  0  0  0  0  0
  -20.3911   14.0765  -21.8288 C   0  0  0  0  0  0  0  0  0  0  0  0
  -20.6161   14.6492  -24.4966 C   0  0  0  0  0  0  0  0  0  0  0  0
  -23.4576   16.6080  -31.0183 C   0  0  0  0  0  0  0  0  0  0  0  0
  -23.0459   17.7813  -30.4443 C   0  0  0  0  0  0  0  0  0  0  0  0
  -21.0231   15.2546  -22.2024 C   0  0  0  0  0  0  0  0  0  0  0  0
  -17.7939   22.6369  -26.0103 C   0  0  0  0  0  0  0  0  0  0  0  0
  -19.1043   22.6608  -25.7406 C   0  0  0  0  0  0  0  0  0  0  0  0
  -17.1712   21.4805  -26.6830 C   0  0  0  0  0  0  0  0  0  0  0  0
  -19.9914   21.5144  -26.0420 C   0  0  0  0  0  0  0  0  0  0  0  0
  -20.6980   14.9753  -25.9333 C   0  0  0  0  0  0  0  0  0  0  0  0
  -20.6021   14.0779  -26.9331 C   0  0  0  0  0  0  0  0  0  0  0  0
  -20.5825   14.4753  -28.3670 C   0  0  0  0  0  0  0  0  0  0  0  0
  -20.1460   18.7378  -28.2921 C   0  0  0  0  0  0  0  0  0  0  0  0
  -22.3873   15.5738  -30.9865 C   0  0  0  0  0  0  0  0  0  0  0  0
  -21.6253   17.6957  -29.9823 C   0  0  2  0  0  0  0  0  0  0  0  0
  -21.3541   16.1710  -30.0201 C   0  0  1  0  0  0  0  0  0  0  0  0
  -21.5396   16.2065  -21.1666 C   0  0  0  0  0  0  0  0  0  0  0  0
  -20.0498   19.1345  -26.8250 C   0  0  0  0  0  0  0  0  0  0  0  0
  -19.8726   13.1934  -22.6923 N   0  0  0  0  0  0  0  0  0  0  0  0
  -18.0084   20.4340  -26.9857 N   0  0  0  0  0  0  0  0  0  0  0  0
  -19.3688   20.4154  -26.6168 N   0  0  0  0  0  0  0  0  0  0  0  0
  -21.4084   15.5338  -28.6987 N   0  0  0  0  0  0  0  0  0  0  0  0
  -21.3987   18.2912  -28.6704 N   0  0  0  0  0  0  0  0  0  0  0  0
  -15.9805   21.4949  -26.9429 O   0  0  0  0  0  0  0  0  0  0  0  0
  -21.1785   21.5765  -25.7550 O   0  0  0  0  0  0  0  0  0  0  0  0
  -19.8812   13.8585  -29.1545 O   0  0  0  0  0  0  0  0  0  0  0  0
  -19.1867   18.7768  -29.0498 O   0  0  0  0  0  0  0  0  0  0  0  0
  -26.5260   17.5276  -32.0662 H   0  0  0  0  0  0  0  0  0  0  0  0
  -25.8071   19.6378  -31.0086 H   0  0  0  0  0  0  0  0  0  0  0  0
  -25.0136   15.5773  -32.0986 H   0  0  0  0  0  0  0  0  0  0  0  0
  -23.5582   19.8295  -29.9980 H   0  0  0  0  0  0  0  0  0  0  0  0
  -21.6123   16.4575  -23.8832 H   0  0  0  0  0  0  0  0  0  0  0  0
  -19.5332   12.7901  -24.6584 H   0  0  0  0  0  0  0  0  0  0  0  0
  -20.2796   13.8082  -20.7823 H   0  0  0  0  0  0  0  0  0  0  0  0
  -17.1471   23.4730  -25.7695 H   0  0  0  0  0  0  0  0  0  0  0  0
  -19.5608   23.5204  -25.2640 H   0  0  0  0  0  0  0  0  0  0  0  0
  -20.8236   16.0288  -26.1579 H   0  0  0  0  0  0  0  0  0  0  0  0
  -20.4229   13.0248  -26.7571 H   0  0  0  0  0  0  0  0  0  0  0  0
  -22.7677   14.5980  -30.6632 H   0  0  0  0  0  0  0  0  0  0  0  0
  -21.9735   15.4926  -31.9938 H   0  0  0  0  0  0  0  0  0  0  0  0
  -20.9953   18.2021  -30.7242 H   0  0  0  0  0  0  0  0  0  0  0  0
  -20.3422   15.9864  -30.3957 H   0  0  0  0  0  0  0  0  0  0  0  0
  -22.0809   15.6649  -20.3845 H   0  0  0  0  0  0  0  0  0  0  0  0
  -20.7082   16.7583  -20.7165 H   0  0  0  0  0  0  0  0  0  0  0  0
  -22.2330   16.9307  -21.6052 H   0  0  0  0  0  0  0  0  0  0  0  0
  -21.0484   19.1787  -26.3789 H   0  0  0  0  0  0  0  0  0  0  0  0
  -19.4895   18.3574  -26.2940 H   0  0  0  0  0  0  0  0  0  0  0  0
  -17.6516   19.6617  -27.5444 H   0  0  0  0  0  0  0  0  0  0  0  0
  -22.0718   15.8855  -28.0184 H   0  0  0  0  0  0  0  0  0  0  0  0
  -22.1785   18.3360  -28.0229 H   0  0  0  0  0  0  0  0  0  0  0  0
  1 34  1  0  0  0  0
  1  2  1  0  0  0  0
  1  3  2  0  0  0  0
  2 35  1  0  0  0  0
  2  4  2  0  0  0  0
  3  9  1  0  0  0  0
  3 36  1  0  0  0  0
  4 37  1  0  0  0  0
  4 10  1  0  0  0  0
  5  8  2  0  0  0  0
  5 38  1  0  0  0  0
  5 11  1  0  0  0  0
  6 25  2  0  0  0  0
  6 39  1  0  0  0  0
  6  8  1  0  0  0  0
  7 11  2  0  0  0  0
  7 40  1  0  0  0  0
  7 25  1  0  0  0  0
  8 16  1  0  0  0  0
  9 20  1  0  0  0  0
  9 10  2  0  0  0  0
 21 10  1  0  0  0  0
 11 23  1  0  0  0  0
 12 13  2  0  0  0  0
 12 41  1  0  0  0  0
 12 14  1  0  0  0  0
 13 15  1  0  0  0  0
 13 42  1  0  0  0  0
 14 30  2  0  0  0  0
 14 26  1  0  0  0  0
 15 27  1  0  0  0  0
 15 31  2  0  0  0  0
 16 17  2  0  0  0  0
 16 43  1  0  0  0  0
 17 18  1  0  0  0  0
 17 44  1  0  0  0  0
 18 28  1  0  0  0  0
 18 32  2  0  0  0  0
 19 29  1  0  0  0  0
 19 33  2  0  0  0  0
 19 24  1  0  0  0  0
 22 20  1  0  0  0  0
 20 45  1  0  0  0  0
 20 46  1  0  0  0  0
 21 47  1  0  0  0  0
 21 29  1  0  0  0  0
 21 22  1  0  0  0  0
 22 48  1  0  0  0  0
 22 28  1  0  0  0  0
 23 49  1  0  0  0  0
 23 50  1  0  0  0  0
 23 51  1  0  0  0  0
 24 52  1  0  0  0  0
 24 53  1  0  0  0  0
 24 27  1  0  0  0  0
 26 54  1  0  0  0  0
 26 27  1  0  0  0  0
 28 55  1  0  0  0  0
 29 56  1  0  0  0  0
M  ZZC   1 c1
M  ZZC   2 c2
M  ZZC   3 c3
M  ZZC   4 c4
M  ZZC   5 c5
M  ZZC   6 c6
M  ZZC   7 c7
M  ZZC   8 c8
M  ZZC   9 c9
M  ZZC  10 c10
M  ZZC  11 c11
M  ZZC  12 c12
M  ZZC  13 c13
M  ZZC  14 c14
M  ZZC  15 c15
M  ZZC  16 c16
M  ZZC  17 c17
M  ZZC  18 c18
M  ZZC  19 c19
M  ZZC  20 c20
M  ZZC  21 c21
M  ZZC  22 c22
M  ZZC  23 c23
M  ZZC  24 c24
M  ZZC  25 n1
M  ZZC  26 n2
M  ZZC  27 n3
M  ZZC  28 n4
M  ZZC  29 n5
M  ZZC  30 o1
M  ZZC  31 o2
M  ZZC  32 o3
M  ZZC  33 o4
M  ZZC  34 h1
M  ZZC  35 h2
M  ZZC  36 h3
M  ZZC  37 h4
M  ZZC  38 h5
M  ZZC  39 h6
M  ZZC  40 h7
M  ZZC  41 h8
M  ZZC  42 h9
M  ZZC  43 h10
M  ZZC  44 h11
M  ZZC  45 h12
M  ZZC  46 h13
M  ZZC  47 h14
M  ZZC  48 h15
M  ZZC  49 h16
M  ZZC  50 h17
M  ZZC  51 h18
M  ZZC  52 h19
M  ZZC  53 h20
M  ZZC  54 h21
M  ZZC  55 h22
M  ZZC  56 h23
M  ZZM   1 37
M  ZZI   1 125
M  ZZM   2 37
M  ZZI   2 125
M  ZZM   3 37
M  ZZI   3 125
M  ZZM   4 37
M  ZZI   4 125
M  ZZM   5 37
M  ZZI   5 125
M  ZZM   6 37
M  ZZI   6 125
M  ZZM   7 37
M  ZZI   7 125
M  ZZM   8 37
M  ZZI   8 124
M  ZZM   9 37
M  ZZI   9 124
M  ZZM  10 37
M  ZZI  10 124
M  ZZM  11 37
M  ZZI  11 124
M  ZZM  12 2
M  ZZI  12 120
M  ZZM  13 2
M  ZZI  13 120
M  ZZM  14 3
M  ZZI  14 121
M  ZZM  15 3
M  ZZI  15 121
M  ZZM  16 2
M  ZZI  16 120
M  ZZM  17 2
M  ZZI  17 120
M  ZZM  18 3
M  ZZI  18 121
M  ZZM  19 3
M  ZZI  19 121
M  ZZM  20 1
M  ZZI  20 112
M  ZZM  21 1
M  ZZI  21 113
M  ZZM  22 1
M  ZZI  22 113
M  ZZM  23 1
M  ZZI  23 111
M  ZZM  24 1
M  ZZI  24 112
M  ZZM  25 38
M  ZZI  25 223
M  ZZM  26 10
M  ZZI  26 191
M  ZZM  27 10
M  ZZI  27 192
M  ZZM  28 10
M  ZZI  28 211
M  ZZM  29 10
M  ZZI  29 211
M  ZZM  30 7
M  ZZI  30 81
M  ZZM  31 7
M  ZZI  31 81
M  ZZM  32 7
M  ZZI  32 81
M  ZZM  33 7
M  ZZI  33 81
M  ZZM  34 5
M  ZZI  34 1
M  ZZM  35 5
M  ZZI  35 1
M  ZZM  36 5
M  ZZI  36 1
M  ZZM  37 5
M  ZZI  37 1
M  ZZM  38 5
M  ZZI  38 1
M  ZZM  39 5
M  ZZI  39 1
M  ZZM  40 5
M  ZZI  40 1
M  ZZM  41 5
M  ZZI  41 1
M  ZZM  42 5
M  ZZI  42 1
M  ZZM  43 5
M  ZZI  43 1
M  ZZM  44 5
M  ZZI  44 1
M  ZZM  45 5
M  ZZI  45 1
M  ZZM  46 5
M  ZZI  46 1
M  ZZM  47 5
M  ZZI  47 1
M  ZZM  48 5
M  ZZI  48 1
M  ZZM  49 5
M  ZZI  49 1
M  ZZM  50 5
M  ZZI  50 1
M  ZZM  51 5
M  ZZI  51 1
M  ZZM  52 5
M  ZZI  52 1
M  ZZM  53 5
M  ZZI  53 1
M  ZZM  54 28
M  ZZI  54 11
M  ZZM  55 28
M  ZZI  55 11
M  ZZM  56 28
M  ZZI  56 11
M  END
> <IX>
64

> <NAME>
73

> <Score>
-28.350288

> <Natom>
56

> <Nflex>
4

> <Hbond>
-4.937948

> <Hphob>
-6.922462

> <VwInt>
-37.280006

> <Dsolv>
18.19789

> <SolEl>
9.083358

> <Eintl>
6.69557

> <RecConf>
ND

> <projPath>
icm/

> <NAME_>
73

$$$$
68
  MOLSOFT 08042117263D

 56 59  0  0  1  0  0  0  0  0999 V2000
  -23.7499   15.7217  -31.6086 C   0  0  0  0  0  0  0  0  0  0  0  0
  -23.6515   14.6212  -30.7644 C   0  0  0  0  0  0  0  0  0  0  0  0
  -22.9302   16.8206  -31.4238 C   0  0  0  0  0  0  0  0  0  0  0  0
  -22.7661   14.6079  -29.7057 C   0  0  0  0  0  0  0  0  0  0  0  0
  -22.0516   16.8021  -30.3568 C   0  0  0  0  0  0  0  0  0  0  0  0
  -21.9823   15.7289  -29.5088 C   0  0  0  0  0  0  0  0  0  0  0  0
  -17.7151   23.9544  -24.3733 C   0  0  0  0  0  0  0  0  0  0  0  0
  -16.6305   23.4844  -25.0008 C   0  0  0  0  0  0  0  0  0  0  0  0
  -22.0638   15.4770  -21.8867 C   0  0  0  0  0  0  0  0  0  0  0  0
  -22.2721   14.3723  -19.9386 C   0  0  0  0  0  0  0  0  0  0  0  0
  -21.1908   14.6114  -22.4269 C   0  0  0  0  0  0  0  0  0  0  0  0
  -19.0724   23.5375  -24.7677 C   0  0  0  0  0  0  0  0  0  0  0  0
  -16.7151   22.5578  -26.1384 C   0  0  0  0  0  0  0  0  0  0  0  0
  -20.7672   13.4782  -21.5710 C   0  0  0  0  0  0  0  0  0  0  0  0
  -20.6301   14.7278  -23.7545 C   0  0  0  0  0  0  0  0  0  0  0  0
  -21.3589   15.0123  -24.8444 C   0  0  0  0  0  0  0  0  0  0  0  0
  -20.6818   15.0685  -26.1610 C   0  0  0  0  0  0  0  0  0  0  0  0
  -18.4830   19.9894  -27.2745 C   0  0  0  0  0  0  0  0  0  0  0  0
  -21.0634   17.8491  -29.9891 C   0  0  0  0  0  0  0  0  0  0  0  0
  -20.9674   15.9395  -28.4427 C   0  0  1  0  0  0  0  0  0  0  0  0
  -20.7089   17.4500  -28.5520 C   0  0  1  0  0  0  0  0  0  0  0  0
  -18.2709   21.4281  -27.7116 C   0  0  0  0  0  0  0  0  0  0  0  0
  -19.2782   17.8052  -28.1645 C   0  0  0  0  0  0  0  0  0  0  0  0
  -22.6397   15.3900  -20.6468 N   0  0  0  0  0  0  0  0  0  0  0  0
  -21.3644   13.4366  -20.3479 N   0  0  0  0  0  0  0  0  0  0  0  0
  -19.1420   22.7223  -25.8694 N   0  0  0  0  0  0  0  0  0  0  0  0
  -17.9994   22.2846  -26.5688 N   0  0  0  0  0  0  0  0  0  0  0  0
  -21.4858   15.6114  -27.1302 N   0  0  0  0  0  0  0  0  0  0  0  0
  -19.0415   19.2283  -28.2828 N   0  0  0  0  0  0  0  0  0  0  0  0
  -20.0524   23.8987  -24.1371 O   0  0  0  0  0  0  0  0  0  0  0  0
  -15.6983   22.0944  -26.6331 O   0  0  0  0  0  0  0  0  0  0  0  0
  -19.9586   12.6528  -21.9619 O   0  0  0  0  0  0  0  0  0  0  0  0
  -19.5323   14.6957  -26.3331 O   0  0  0  0  0  0  0  0  0  0  0  0
  -18.1565   19.5525  -26.1782 O   0  0  0  0  0  0  0  0  0  0  0  0
  -24.4629   15.7216  -32.4265 H   0  0  0  0  0  0  0  0  0  0  0  0
  -24.2741   13.7531  -30.9283 H   0  0  0  0  0  0  0  0  0  0  0  0
  -22.9799   17.6689  -32.0989 H   0  0  0  0  0  0  0  0  0  0  0  0
  -22.6959   13.7442  -29.0507 H   0  0  0  0  0  0  0  0  0  0  0  0
  -17.6352   24.6348  -23.5340 H   0  0  0  0  0  0  0  0  0  0  0  0
  -15.6323   23.7588  -24.6950 H   0  0  0  0  0  0  0  0  0  0  0  0
  -22.3832   16.3418  -22.4593 H   0  0  0  0  0  0  0  0  0  0  0  0
  -22.6713   14.1909  -18.9271 H   0  0  0  0  0  0  0  0  0  0  0  0
  -19.5696   14.5046  -23.8434 H   0  0  0  0  0  0  0  0  0  0  0  0
  -22.4227   15.2159  -24.7970 H   0  0  0  0  0  0  0  0  0  0  0  0
  -20.2009   17.7991  -30.6602 H   0  0  0  0  0  0  0  0  0  0  0  0
  -21.4978   18.8538  -30.0345 H   0  0  0  0  0  0  0  0  0  0  0  0
  -20.0690   15.3501  -28.6672 H   0  0  0  0  0  0  0  0  0  0  0  0
  -21.3921   17.9890  -27.8803 H   0  0  0  0  0  0  0  0  0  0  0  0
  -17.4156   21.4595  -28.3940 H   0  0  0  0  0  0  0  0  0  0  0  0
  -19.1524   21.8040  -28.2436 H   0  0  0  0  0  0  0  0  0  0  0  0
  -19.0639   17.4839  -27.1415 H   0  0  0  0  0  0  0  0  0  0  0  0
  -18.5643   17.3081  -28.8275 H   0  0  0  0  0  0  0  0  0  0  0  0
  -21.1135   12.6653  -19.7416 H   0  0  0  0  0  0  0  0  0  0  0  0
  -20.0530   22.4010  -26.1775 H   0  0  0  0  0  0  0  0  0  0  0  0
  -22.4420   15.8726  -26.9167 H   0  0  0  0  0  0  0  0  0  0  0  0
  -19.2177   19.6609  -29.1824 H   0  0  0  0  0  0  0  0  0  0  0  0
  1 35  1  0  0  0  0
  1  2  1  0  0  0  0
  1  3  2  0  0  0  0
  2 36  1  0  0  0  0
  2  4  2  0  0  0  0
  3  5  1  0  0  0  0
  3 37  1  0  0  0  0
  4 38  1  0  0  0  0
  4  6  1  0  0  0  0
  5 19  1  0  0  0  0
  5  6  2  0  0  0  0
 20  6  1  0  0  0  0
  7  8  2  0  0  0  0
  7 39  1  0  0  0  0
  7 12  1  0  0  0  0
  8 13  1  0  0  0  0
  8 40  1  0  0  0  0
  9 24  1  0  0  0  0
  9 41  1  0  0  0  0
  9 11  2  0  0  0  0
 10 25  1  0  0  0  0
 10 42  1  0  0  0  0
 10 24  2  0  0  0  0
 11 15  1  0  0  0  0
 11 14  1  0  0  0  0
 12 30  2  0  0  0  0
 12 26  1  0  0  0  0
 13 27  1  0  0  0  0
 13 31  2  0  0  0  0
 14 32  2  0  0  0  0
 14 25  1  0  0  0  0
 15 16  2  0  0  0  0
 15 43  1  0  0  0  0
 16 17  1  0  0  0  0
 16 44  1  0  0  0  0
 17 28  1  0  0  0  0
 17 33  2  0  0  0  0
 18 29  1  0  0  0  0
 18 34  2  0  0  0  0
 18 22  1  0  0  0  0
 21 19  1  0  0  0  0
 19 45  1  0  0  0  0
 19 46  1  0  0  0  0
 20 47  1  0  0  0  0
 20 28  1  0  0  0  0
 20 21  1  0  0  0  0
 21 48  1  0  0  0  0
 21 23  1  0  0  0  0
 22 49  1  0  0  0  0
 22 50  1  0  0  0  0
 22 27  1  0  0  0  0
 23 51  1  0  0  0  0
 23 52  1  0  0  0  0
 23 29  1  0  0  0  0
 25 53  1  0  0  0  0
 26 54  1  0  0  0  0
 26 27  1  0  0  0  0
 28 55  1  0  0  0  0
 29 56  1  0  0  0  0
M  ZZC   1 c1
M  ZZC   2 c2
M  ZZC   3 c3
M  ZZC   4 c4
M  ZZC   5 c5
M  ZZC   6 c6
M  ZZC   7 c7
M  ZZC   8 c8
M  ZZC   9 c9
M  ZZC  10 c10
M  ZZC  11 c11
M  ZZC  12 c12
M  ZZC  13 c13
M  ZZC  14 c14
M  ZZC  15 c15
M  ZZC  16 c16
M  ZZC  17 c17
M  ZZC  18 c18
M  ZZC  19 c19
M  ZZC  20 c20
M  ZZC  21 c21
M  ZZC  22 c22
M  ZZC  23 c23
M  ZZC  24 n1
M  ZZC  25 n2
M  ZZC  26 n3
M  ZZC  27 n4
M  ZZC  28 n5
M  ZZC  29 n6
M  ZZC  30 o1
M  ZZC  31 o2
M  ZZC  32 o3
M  ZZC  33 o4
M  ZZC  34 o5
M  ZZC  35 h1
M  ZZC  36 h2
M  ZZC  37 h3
M  ZZC  38 h4
M  ZZC  39 h5
M  ZZC  40 h6
M  ZZC  41 h7
M  ZZC  42 h8
M  ZZC  43 h9
M  ZZC  44 h10
M  ZZC  45 h11
M  ZZC  46 h12
M  ZZC  47 h13
M  ZZC  48 h14
M  ZZC  49 h15
M  ZZC  50 h16
M  ZZC  51 h17
M  ZZC  52 h18
M  ZZC  53 h19
M  ZZC  54 h20
M  ZZC  55 h21
M  ZZC  56 h22
M  ZZM   1 37
M  ZZI   1 125
M  ZZM   2 37
M  ZZI   2 125
M  ZZM   3 37
M  ZZI   3 125
M  ZZM   4 37
M  ZZI   4 125
M  ZZM   5 37
M  ZZI   5 124
M  ZZM   6 37
M  ZZI   6 124
M  ZZM   7 2
M  ZZI   7 120
M  ZZM   8 2
M  ZZI   8 120
M  ZZM   9 2
M  ZZI   9 120
M  ZZM  10 3
M  ZZI  10 121
M  ZZM  11 2
M  ZZI  11 120
M  ZZM  12 3
M  ZZI  12 121
M  ZZM  13 3
M  ZZI  13 121
M  ZZM  14 3
M  ZZI  14 121
M  ZZM  15 2
M  ZZI  15 120
M  ZZM  16 2
M  ZZI  16 120
M  ZZM  17 3
M  ZZI  17 121
M  ZZM  18 3
M  ZZI  18 121
M  ZZM  19 1
M  ZZI  19 112
M  ZZM  20 1
M  ZZI  20 113
M  ZZM  21 1
M  ZZI  21 113
M  ZZM  22 1
M  ZZI  22 112
M  ZZM  23 1
M  ZZI  23 112
M  ZZM  24 9
M  ZZI  24 220
M  ZZM  25 10
M  ZZI  25 191
M  ZZM  26 10
M  ZZI  26 191
M  ZZM  27 10
M  ZZI  27 192
M  ZZM  28 10
M  ZZI  28 211
M  ZZM  29 10
M  ZZI  29 211
M  ZZM  30 7
M  ZZI  30 81
M  ZZM  31 7
M  ZZI  31 81
M  ZZM  32 7
M  ZZI  32 81
M  ZZM  33 7
M  ZZI  33 81
M  ZZM  34 7
M  ZZI  34 81
M  ZZM  35 5
M  ZZI  35 1
M  ZZM  36 5
M  ZZI  36 1
M  ZZM  37 5
M  ZZI  37 1
M  ZZM  38 5
M  ZZI  38 1
M  ZZM  39 5
M  ZZI  39 1
M  ZZM  40 5
M  ZZI  40 1
M  ZZM  41 5
M  ZZI  41 1
M  ZZM  42 5
M  ZZI  42 1
M  ZZM  43 5
M  ZZI  43 1
M  ZZM  44 5
M  ZZI  44 1
M  ZZM  45 5
M  ZZI  45 1
M  ZZM  46 5
M  ZZI  46 1
M  ZZM  47 5
M  ZZI  47 1
M  ZZM  48 5
M  ZZI  48 1
M  ZZM  49 5
M  ZZI  49 1
M  ZZM  50 5
M  ZZI  50 1
M  ZZM  51 5
M  ZZI  51 1
M  ZZM  52 5
M  ZZI  52 1
M  ZZM  53 28
M  ZZI  53 11
M  ZZM  54 28
M  ZZI  54 11
M  ZZM  55 28
M  ZZI  55 11
M  ZZM  56 28
M  ZZI  56 11
M  END
> <IX>
65

> <NAME>
68

> <Score>
-34.015952

> <Natom>
56

> <Nflex>
5

> <Hbond>
-6.422041

> <Hphob>
-6.27903

> <VwInt>
-40.294577

> <Dsolv>
20.693144

> <SolEl>
9.219496

> <Eintl>
3.547686

> <RecConf>
ND

> <projPath>
icm/

> <NAME_>
68

$$$$
88
  MOLSOFT 08042117283D

 53 56  0  0  1  0  0  0  0  0999 V2000
  -23.2936   15.0437  -30.6899 C   0  0  0  0  0  0  0  0  0  0  0  0
  -22.3586   15.9769  -31.1090 C   0  0  0  0  0  0  0  0  0  0  0  0
  -23.1196   14.3566  -29.4994 C   0  0  0  0  0  0  0  0  0  0  0  0
  -21.2386   16.2364  -30.3381 C   0  0  0  0  0  0  0  0  0  0  0  0
  -22.0005   14.6313  -28.7365 C   0  0  0  0  0  0  0  0  0  0  0  0
  -21.0684   15.5487  -29.1472 C   0  0  0  0  0  0  0  0  0  0  0  0
  -22.1625   14.9933  -20.4411 C   0  0  0  0  0  0  0  0  0  0  0  0
  -21.6642   13.8113  -20.8180 C   0  0  0  0  0  0  0  0  0  0  0  0
  -21.6901   16.2065  -21.0337 C   0  0  0  0  0  0  0  0  0  0  0  0
  -19.3847   21.9762  -25.6785 C   0  0  0  0  0  0  0  0  0  0  0  0
  -20.7775   16.1567  -22.0050 C   0  0  0  0  0  0  0  0  0  0  0  0
  -18.1404   23.5951  -24.7310 C   0  0  0  0  0  0  0  0  0  0  0  0
  -18.3749   21.4073  -26.3576 C   0  0  0  0  0  0  0  0  0  0  0  0
  -20.6167   13.7443  -21.8728 C   0  0  0  0  0  0  0  0  0  0  0  0
  -17.0414   22.0585  -26.2095 C   0  0  0  0  0  0  0  0  0  0  0  0
  -18.5329   20.2645  -27.2408 C   0  0  0  0  0  0  0  0  0  0  0  0
  -19.3232   19.2019  -26.9988 C   0  0  0  0  0  0  0  0  0  0  0  0
  -19.3613   18.0784  -27.9773 C   0  0  0  0  0  0  0  0  0  0  0  0
  -20.0785   15.1665  -24.9029 C   0  0  0  0  0  0  0  0  0  0  0  0
  -21.6575   14.0542  -27.4092 C   0  0  0  0  0  0  0  0  0  0  0  0
  -19.9334   15.6672  -28.1783 C   0  0  2  0  0  0  0  0  0  0  0  0
  -20.1660   14.3944  -27.3131 C   0  0  1  0  0  0  0  0  0  0  0  0
  -19.3314   14.9543  -23.5870 C   0  0  0  0  0  0  0  0  0  0  0  0
  -19.3123   23.0621  -24.8465 N   0  0  0  0  0  0  0  0  0  0  0  0
  -17.0237   23.1417  -25.3752 N   0  0  0  0  0  0  0  0  0  0  0  0
  -20.2595   14.9575  -22.4521 N   0  0  0  0  0  0  0  0  0  0  0  0
  -19.9518   16.9407  -27.4649 N   0  0  0  0  0  0  0  0  0  0  0  0
  -19.6351   14.3679  -25.9447 N   0  0  0  0  0  0  0  0  0  0  0  0
  -20.1410   12.6584  -22.1691 O   0  0  0  0  0  0  0  0  0  0  0  0
  -16.0349   21.6475  -26.7662 O   0  0  0  0  0  0  0  0  0  0  0  0
  -18.9008   18.1747  -29.1052 O   0  0  0  0  0  0  0  0  0  0  0  0
  -20.9585   16.0071  -25.0305 O   0  0  0  0  0  0  0  0  0  0  0  0
  -24.1683   14.8609  -31.3003 H   0  0  0  0  0  0  0  0  0  0  0  0
  -22.5021   16.5044  -32.0470 H   0  0  0  0  0  0  0  0  0  0  0  0
  -23.8437   13.6217  -29.1705 H   0  0  0  0  0  0  0  0  0  0  0  0
  -20.5100   16.9684  -30.6677 H   0  0  0  0  0  0  0  0  0  0  0  0
  -22.9280   15.0559  -19.6753 H   0  0  0  0  0  0  0  0  0  0  0  0
  -22.0015   12.8828  -20.3771 H   0  0  0  0  0  0  0  0  0  0  0  0
  -22.0941   17.1521  -20.6898 H   0  0  0  0  0  0  0  0  0  0  0  0
  -20.3861   21.5685  -25.7690 H   0  0  0  0  0  0  0  0  0  0  0  0
  -20.4184   17.0640  -22.4826 H   0  0  0  0  0  0  0  0  0  0  0  0
  -17.9600   24.4727  -24.0884 H   0  0  0  0  0  0  0  0  0  0  0  0
  -17.9284   20.2922  -28.1425 H   0  0  0  0  0  0  0  0  0  0  0  0
  -19.9158   19.1109  -26.0953 H   0  0  0  0  0  0  0  0  0  0  0  0
  -22.2629   14.5266  -26.6296 H   0  0  0  0  0  0  0  0  0  0  0  0
  -21.8242   12.9733  -27.3786 H   0  0  0  0  0  0  0  0  0  0  0  0
  -18.9786   15.5868  -28.7114 H   0  0  0  0  0  0  0  0  0  0  0  0
  -19.6331   13.5778  -27.8190 H   0  0  0  0  0  0  0  0  0  0  0  0
  -18.7815   14.0091  -23.6121 H   0  0  0  0  0  0  0  0  0  0  0  0
  -18.5995   15.7571  -23.4600 H   0  0  0  0  0  0  0  0  0  0  0  0
  -16.1389   23.6101  -25.2263 H   0  0  0  0  0  0  0  0  0  0  0  0
  -20.4258   16.9761  -26.5675 H   0  0  0  0  0  0  0  0  0  0  0  0
  -18.9333   13.6627  -25.7442 H   0  0  0  0  0  0  0  0  0  0  0  0
  1 33  1  0  0  0  0
  1  2  1  0  0  0  0
  1  3  2  0  0  0  0
  2 34  1  0  0  0  0
  2  4  2  0  0  0  0
  3  5  1  0  0  0  0
  3 35  1  0  0  0  0
  4 36  1  0  0  0  0
  4  6  1  0  0  0  0
  5 20  1  0  0  0  0
  5  6  2  0  0  0  0
 21  6  1  0  0  0  0
  7  9  1  0  0  0  0
  7 37  1  0  0  0  0
  7  8  2  0  0  0  0
  8 38  1  0  0  0  0
  8 14  1  0  0  0  0
  9 11  2  0  0  0  0
  9 39  1  0  0  0  0
 10 13  2  0  0  0  0
 10 40  1  0  0  0  0
 10 24  1  0  0  0  0
 11 26  1  0  0  0  0
 11 41  1  0  0  0  0
 12 24  2  0  0  0  0
 12 42  1  0  0  0  0
 12 25  1  0  0  0  0
 13 16  1  0  0  0  0
 13 15  1  0  0  0  0
 14 29  2  0  0  0  0
 14 26  1  0  0  0  0
 15 25  1  0  0  0  0
 15 30  2  0  0  0  0
 16 17  2  0  0  0  0
 16 43  1  0  0  0  0
 17 18  1  0  0  0  0
 17 44  1  0  0  0  0
 18 27  1  0  0  0  0
 18 31  2  0  0  0  0
 19 28  1  0  0  0  0
 19 32  2  0  0  0  0
 19 23  1  0  0  0  0
 22 20  1  0  0  0  0
 20 45  1  0  0  0  0
 20 46  1  0  0  0  0
 21 47  1  0  0  0  0
 21 22  1  0  0  0  0
 21 27  1  0  0  0  0
 22 48  1  0  0  0  0
 22 28  1  0  0  0  0
 23 49  1  0  0  0  0
 23 50  1  0  0  0  0
 23 26  1  0  0  0  0
 25 51  1  0  0  0  0
 27 52  1  0  0  0  0
 28 53  1  0  0  0  0
M  ZZC   1 c1
M  ZZC   2 c2
M  ZZC   3 c3
M  ZZC   4 c4
M  ZZC   5 c5
M  ZZC   6 c6
M  ZZC   7 c7
M  ZZC   8 c8
M  ZZC   9 c9
M  ZZC  10 c10
M  ZZC  11 c11
M  ZZC  12 c12
M  ZZC  13 c13
M  ZZC  14 c14
M  ZZC  15 c15
M  ZZC  16 c16
M  ZZC  17 c17
M  ZZC  18 c18
M  ZZC  19 c19
M  ZZC  20 c20
M  ZZC  21 c21
M  ZZC  22 c22
M  ZZC  23 c23
M  ZZC  24 n1
M  ZZC  25 n2
M  ZZC  26 n3
M  ZZC  27 n4
M  ZZC  28 n5
M  ZZC  29 o1
M  ZZC  30 o2
M  ZZC  31 o3
M  ZZC  32 o4
M  ZZC  33 h1
M  ZZC  34 h2
M  ZZC  35 h3
M  ZZC  36 h4
M  ZZC  37 h5
M  ZZC  38 h6
M  ZZC  39 h7
M  ZZC  40 h8
M  ZZC  41 h9
M  ZZC  42 h10
M  ZZC  43 h11
M  ZZC  44 h12
M  ZZC  45 h13
M  ZZC  46 h14
M  ZZC  47 h15
M  ZZC  48 h16
M  ZZC  49 h17
M  ZZC  50 h18
M  ZZC  51 h19
M  ZZC  52 h20
M  ZZC  53 h21
M  ZZM   1 37
M  ZZI   1 125
M  ZZM   2 37
M  ZZI   2 125
M  ZZM   3 37
M  ZZI   3 125
M  ZZM   4 37
M  ZZI   4 125
M  ZZM   5 37
M  ZZI   5 124
M  ZZM   6 37
M  ZZI   6 124
M  ZZM   7 2
M  ZZI   7 120
M  ZZM   8 2
M  ZZI   8 120
M  ZZM   9 2
M  ZZI   9 120
M  ZZM  10 2
M  ZZI  10 120
M  ZZM  11 2
M  ZZI  11 120
M  ZZM  12 3
M  ZZI  12 121
M  ZZM  13 2
M  ZZI  13 120
M  ZZM  14 3
M  ZZI  14 121
M  ZZM  15 3
M  ZZI  15 121
M  ZZM  16 2
M  ZZI  16 120
M  ZZM  17 2
M  ZZI  17 120
M  ZZM  18 3
M  ZZI  18 121
M  ZZM  19 3
M  ZZI  19 121
M  ZZM  20 1
M  ZZI  20 112
M  ZZM  21 1
M  ZZI  21 113
M  ZZM  22 1
M  ZZI  22 113
M  ZZM  23 1
M  ZZI  23 112
M  ZZM  24 9
M  ZZI  24 220
M  ZZM  25 10
M  ZZI  25 191
M  ZZM  26 10
M  ZZI  26 192
M  ZZM  27 10
M  ZZI  27 211
M  ZZM  28 10
M  ZZI  28 211
M  ZZM  29 7
M  ZZI  29 81
M  ZZM  30 7
M  ZZI  30 81
M  ZZM  31 7
M  ZZI  31 81
M  ZZM  32 7
M  ZZI  32 81
M  ZZM  33 5
M  ZZI  33 1
M  ZZM  34 5
M  ZZI  34 1
M  ZZM  35 5
M  ZZI  35 1
M  ZZM  36 5
M  ZZI  36 1
M  ZZM  37 5
M  ZZI  37 1
M  ZZM  38 5
M  ZZI  38 1
M  ZZM  39 5
M  ZZI  39 1
M  ZZM  40 5
M  ZZI  40 1
M  ZZM  41 5
M  ZZI  41 1
M  ZZM  42 5
M  ZZI  42 1
M  ZZM  43 5
M  ZZI  43 1
M  ZZM  44 5
M  ZZI  44 1
M  ZZM  45 5
M  ZZI  45 1
M  ZZM  46 5
M  ZZI  46 1
M  ZZM  47 5
M  ZZI  47 1
M  ZZM  48 5
M  ZZI  48 1
M  ZZM  49 5
M  ZZI  49 1
M  ZZM  50 5
M  ZZI  50 1
M  ZZM  51 28
M  ZZI  51 11
M  ZZM  52 28
M  ZZI  52 11
M  ZZM  53 28
M  ZZI  53 11
M  END
> <IX>
66

> <NAME>
88

> <Score>
-39.447777

> <Natom>
53

> <Nflex>
4

> <Hbond>
-6.540235

> <Hphob>
-5.74301

> <VwInt>
-43.505913

> <Dsolv>
18.813597

> <SolEl>
8.853614

> <Eintl>
3.498609

> <RecConf>
ND

> <projPath>
icm/

> <NAME_>
88

$$$$
67
  MOLSOFT 08042116493D

 56 59  0  0  1  0  0  0  0  0999 V2000
  -25.6654   17.6101  -31.6185 C   0  0  0  0  0  0  0  0  0  0  0  0
  -25.2646   18.7863  -30.9986 C   0  0  0  0  0  0  0  0  0  0  0  0
  -24.8039   16.5277  -31.6837 C   0  0  0  0  0  0  0  0  0  0  0  0
  -23.9964   18.8985  -30.4462 C   0  0  0  0  0  0  0  0  0  0  0  0
  -23.5467   16.6448  -31.1138 C   0  0  0  0  0  0  0  0  0  0  0  0
  -23.1417   17.8071  -30.5115 C   0  0  0  0  0  0  0  0  0  0  0  0
  -17.8178   22.5738  -26.0515 C   0  0  0  0  0  0  0  0  0  0  0  0
  -19.1295   22.5983  -25.7889 C   0  0  0  0  0  0  0  0  0  0  0  0
  -20.1020   13.7572  -24.0944 C   0  0  0  0  0  0  0  0  0  0  0  0
  -20.9638   14.6109  -24.6735 C   0  0  0  0  0  0  0  0  0  0  0  0
  -17.1938   21.4206  -26.7281 C   0  0  0  0  0  0  0  0  0  0  0  0
  -20.0192   21.4589  -26.1084 C   0  0  0  0  0  0  0  0  0  0  0  0
  -21.9270   15.2876  -23.7630 C   0  0  0  0  0  0  0  0  0  0  0  0
  -20.8725   14.0408  -21.9981 C   0  0  0  0  0  0  0  0  0  0  0  0
  -20.9611   14.9487  -26.0839 C   0  0  0  0  0  0  0  0  0  0  0  0
  -20.7472   14.0734  -27.0829 C   0  0  0  0  0  0  0  0  0  0  0  0
  -20.6834   14.4924  -28.5074 C   0  0  0  0  0  0  0  0  0  0  0  0
  -20.1961   18.7179  -28.3859 C   0  0  0  0  0  0  0  0  0  0  0  0
  -22.4557   15.6319  -31.1413 C   0  0  0  0  0  0  0  0  0  0  0  0
  -21.7106   17.7276  -30.0801 C   0  0  2  0  0  0  0  0  0  0  0  0
  -21.4344   16.2054  -30.1504 C   0  0  1  0  0  0  0  0  0  0  0  0
  -20.9235   13.7756  -20.5230 C   0  0  0  0  0  0  0  0  0  0  0  0
  -20.0805   19.0850  -26.9122 C   0  0  0  0  0  0  0  0  0  0  0  0
  -20.0478   13.4090  -22.7695 N   0  0  0  0  0  0  0  0  0  0  0  0
  -21.7780   14.9681  -22.4462 N   0  0  0  0  0  0  0  0  0  0  0  0
  -18.0325   20.3791  -27.0452 N   0  0  0  0  0  0  0  0  0  0  0  0
  -19.3961   20.3615  -26.6860 N   0  0  0  0  0  0  0  0  0  0  0  0
  -21.5199   15.5395  -28.8472 N   0  0  0  0  0  0  0  0  0  0  0  0
  -21.4601   18.2995  -28.7615 N   0  0  0  0  0  0  0  0  0  0  0  0
  -16.0009   21.4341  -26.9773 O   0  0  0  0  0  0  0  0  0  0  0  0
  -21.2085   21.5266  -25.8321 O   0  0  0  0  0  0  0  0  0  0  0  0
  -22.7946   16.0523  -24.1587 O   0  0  0  0  0  0  0  0  0  0  0  0
  -19.9369   13.9067  -29.2765 O   0  0  0  0  0  0  0  0  0  0  0  0
  -19.2432   18.7552  -29.1519 O   0  0  0  0  0  0  0  0  0  0  0  0
  -26.6544   17.5391  -32.0596 H   0  0  0  0  0  0  0  0  0  0  0  0
  -25.9458   19.6301  -30.9583 H   0  0  0  0  0  0  0  0  0  0  0  0
  -25.1110   15.6153  -32.1828 H   0  0  0  0  0  0  0  0  0  0  0  0
  -23.6786   19.8312  -29.9906 H   0  0  0  0  0  0  0  0  0  0  0  0
  -17.1702   23.4062  -25.7999 H   0  0  0  0  0  0  0  0  0  0  0  0
  -19.5865   23.4550  -25.3077 H   0  0  0  0  0  0  0  0  0  0  0  0
  -19.3527   13.2623  -24.7014 H   0  0  0  0  0  0  0  0  0  0  0  0
  -21.1453   15.9960  -26.2981 H   0  0  0  0  0  0  0  0  0  0  0  0
  -20.5128   13.0319  -26.8978 H   0  0  0  0  0  0  0  0  0  0  0  0
  -22.8114   14.6332  -30.8634 H   0  0  0  0  0  0  0  0  0  0  0  0
  -22.0437   15.6086  -32.1525 H   0  0  0  0  0  0  0  0  0  0  0  0
  -21.0989   18.2525  -30.8244 H   0  0  0  0  0  0  0  0  0  0  0  0
  -20.4153   16.0288  -30.5076 H   0  0  0  0  0  0  0  0  0  0  0  0
  -19.9739   13.3603  -20.1736 H   0  0  0  0  0  0  0  0  0  0  0  0
  -21.7298   13.0668  -20.3195 H   0  0  0  0  0  0  0  0  0  0  0  0
  -21.1458   14.7006  -19.9890 H   0  0  0  0  0  0  0  0  0  0  0  0
  -21.0735   19.1212  -26.4531 H   0  0  0  0  0  0  0  0  0  0  0  0
  -19.5166   18.2952  -26.4041 H   0  0  0  0  0  0  0  0  0  0  0  0
  -22.4099   15.4174  -21.7960 H   0  0  0  0  0  0  0  0  0  0  0  0
  -17.6743   19.6097  -27.6065 H   0  0  0  0  0  0  0  0  0  0  0  0
  -22.2252   15.8552  -28.1912 H   0  0  0  0  0  0  0  0  0  0  0  0
  -22.2291   18.3325  -28.1003 H   0  0  0  0  0  0  0  0  0  0  0  0
  1 35  1  0  0  0  0
  1  2  1  0  0  0  0
  1  3  2  0  0  0  0
  2 36  1  0  0  0  0
  2  4  2  0  0  0  0
  3  5  1  0  0  0  0
  3 37  1  0  0  0  0
  4 38  1  0  0  0  0
  4  6  1  0  0  0  0
  5 19  1  0  0  0  0
  5  6  2  0  0  0  0
 20  6  1  0  0  0  0
  7  8  2  0  0  0  0
  7 39  1  0  0  0  0
  7 11  1  0  0  0  0
  8 12  1  0  0  0  0
  8 40  1  0  0  0  0
  9 24  1  0  0  0  0
  9 41  1  0  0  0  0
  9 10  2  0  0  0  0
 10 15  1  0  0  0  0
 10 13  1  0  0  0  0
 11 30  2  0  0  0  0
 11 26  1  0  0  0  0
 12 27  1  0  0  0  0
 12 31  2  0  0  0  0
 13 32  2  0  0  0  0
 13 25  1  0  0  0  0
 14 25  1  0  0  0  0
 14 22  1  0  0  0  0
 14 24  2  0  0  0  0
 15 16  2  0  0  0  0
 15 42  1  0  0  0  0
 16 17  1  0  0  0  0
 16 43  1  0  0  0  0
 17 28  1  0  0  0  0
 17 33  2  0  0  0  0
 18 29  1  0  0  0  0
 18 34  2  0  0  0  0
 18 23  1  0  0  0  0
 21 19  1  0  0  0  0
 19 44  1  0  0  0  0
 19 45  1  0  0  0  0
 20 46  1  0  0  0  0
 20 29  1  0  0  0  0
 20 21  1  0  0  0  0
 21 47  1  0  0  0  0
 21 28  1  0  0  0  0
 22 48  1  0  0  0  0
 22 49  1  0  0  0  0
 22 50  1  0  0  0  0
 23 51  1  0  0  0  0
 23 52  1  0  0  0  0
 23 27  1  0  0  0  0
 25 53  1  0  0  0  0
 26 54  1  0  0  0  0
 26 27  1  0  0  0  0
 28 55  1  0  0  0  0
 29 56  1  0  0  0  0
M  ZZC   1 c1
M  ZZC   2 c2
M  ZZC   3 c3
M  ZZC   4 c4
M  ZZC   5 c5
M  ZZC   6 c6
M  ZZC   7 c7
M  ZZC   8 c8
M  ZZC   9 c9
M  ZZC  10 c10
M  ZZC  11 c11
M  ZZC  12 c12
M  ZZC  13 c13
M  ZZC  14 c14
M  ZZC  15 c15
M  ZZC  16 c16
M  ZZC  17 c17
M  ZZC  18 c18
M  ZZC  19 c19
M  ZZC  20 c20
M  ZZC  21 c21
M  ZZC  22 c22
M  ZZC  23 c23
M  ZZC  24 n1
M  ZZC  25 n2
M  ZZC  26 n3
M  ZZC  27 n4
M  ZZC  28 n5
M  ZZC  29 n6
M  ZZC  30 o1
M  ZZC  31 o2
M  ZZC  32 o3
M  ZZC  33 o4
M  ZZC  34 o5
M  ZZC  35 h1
M  ZZC  36 h2
M  ZZC  37 h3
M  ZZC  38 h4
M  ZZC  39 h5
M  ZZC  40 h6
M  ZZC  41 h7
M  ZZC  42 h8
M  ZZC  43 h9
M  ZZC  44 h10
M  ZZC  45 h11
M  ZZC  46 h12
M  ZZC  47 h13
M  ZZC  48 h14
M  ZZC  49 h15
M  ZZC  50 h16
M  ZZC  51 h17
M  ZZC  52 h18
M  ZZC  53 h19
M  ZZC  54 h20
M  ZZC  55 h21
M  ZZC  56 h22
M  ZZM   1 37
M  ZZI   1 125
M  ZZM   2 37
M  ZZI   2 125
M  ZZM   3 37
M  ZZI   3 125
M  ZZM   4 37
M  ZZI   4 125
M  ZZM   5 37
M  ZZI   5 124
M  ZZM   6 37
M  ZZI   6 124
M  ZZM   7 2
M  ZZI   7 120
M  ZZM   8 2
M  ZZI   8 120
M  ZZM   9 2
M  ZZI   9 120
M  ZZM  10 2
M  ZZI  10 120
M  ZZM  11 3
M  ZZI  11 121
M  ZZM  12 3
M  ZZI  12 121
M  ZZM  13 3
M  ZZI  13 121
M  ZZM  14 3
M  ZZI  14 121
M  ZZM  15 2
M  ZZI  15 120
M  ZZM  16 2
M  ZZI  16 120
M  ZZM  17 3
M  ZZI  17 121
M  ZZM  18 3
M  ZZI  18 121
M  ZZM  19 1
M  ZZI  19 112
M  ZZM  20 1
M  ZZI  20 113
M  ZZM  21 1
M  ZZI  21 113
M  ZZM  22 1
M  ZZI  22 111
M  ZZM  23 1
M  ZZI  23 112
M  ZZM  24 9
M  ZZI  24 220
M  ZZM  25 10
M  ZZI  25 191
M  ZZM  26 10
M  ZZI  26 191
M  ZZM  27 10
M  ZZI  27 192
M  ZZM  28 10
M  ZZI  28 211
M  ZZM  29 10
M  ZZI  29 211
M  ZZM  30 7
M  ZZI  30 81
M  ZZM  31 7
M  ZZI  31 81
M  ZZM  32 7
M  ZZI  32 81
M  ZZM  33 7
M  ZZI  33 81
M  ZZM  34 7
M  ZZI  34 81
M  ZZM  35 5
M  ZZI  35 1
M  ZZM  36 5
M  ZZI  36 1
M  ZZM  37 5
M  ZZI  37 1
M  ZZM  38 5
M  ZZI  38 1
M  ZZM  39 5
M  ZZI  39 1
M  ZZM  40 5
M  ZZI  40 1
M  ZZM  41 5
M  ZZI  41 1
M  ZZM  42 5
M  ZZI  42 1
M  ZZM  43 5
M  ZZI  43 1
M  ZZM  44 5
M  ZZI  44 1
M  ZZM  45 5
M  ZZI  45 1
M  ZZM  46 5
M  ZZI  46 1
M  ZZM  47 5
M  ZZI  47 1
M  ZZM  48 5
M  ZZI  48 1
M  ZZM  49 5
M  ZZI  49 1
M  ZZM  50 5
M  ZZI  50 1
M  ZZM  51 5
M  ZZI  51 1
M  ZZM  52 5
M  ZZI  52 1
M  ZZM  53 28
M  ZZI  53 11
M  ZZM  54 28
M  ZZI  54 11
M  ZZM  55 28
M  ZZI  55 11
M  ZZM  56 28
M  ZZI  56 11
M  END
> <IX>
72

> <NAME>
67

> <Score>
-30.716641

> <Natom>
56

> <Nflex>
4

> <Hbond>
-5.516681

> <Hphob>
-6.708344

> <VwInt>
-38.619288

> <Dsolv>
19.416897

> <SolEl>
9.615487

> <Eintl>
5.075908

> <RecConf>
ND

> <projPath>
icm/

> <NAME_>
67

$$$$
76
  MOLSOFT 08042116513D

 53 56  0  0  1  0  0  0  0  0999 V2000
  -24.5802   17.2646  -32.4854 C   0  0  0  0  0  0  0  0  0  0  0  0
  -23.4651   18.0853  -32.4228 C   0  0  0  0  0  0  0  0  0  0  0  0
  -21.3092   14.9707  -21.9806 C   0  0  0  0  0  0  0  0  0  0  0  0
  -21.4091   15.1432  -23.3528 C   0  0  0  0  0  0  0  0  0  0  0  0
  -24.6010   16.0639  -31.7985 C   0  0  0  0  0  0  0  0  0  0  0  0
  -22.3509   17.7084  -31.6943 C   0  0  0  0  0  0  0  0  0  0  0  0
  -20.5037   13.9612  -21.4876 C   0  0  0  0  0  0  0  0  0  0  0  0
  -19.8988   13.3406  -23.5818 C   0  0  0  0  0  0  0  0  0  0  0  0
  -20.6900   14.3036  -24.1972 C   0  0  0  0  0  0  0  0  0  0  0  0
  -23.4954   15.7076  -31.0388 C   0  0  0  0  0  0  0  0  0  0  0  0
  -22.3900   16.5136  -30.9934 C   0  0  0  0  0  0  0  0  0  0  0  0
  -18.0489   21.9522  -27.8109 C   0  0  0  0  0  0  0  0  0  0  0  0
  -17.7925   21.1215  -26.7940 C   0  0  0  0  0  0  0  0  0  0  0  0
  -19.2045   21.7377  -28.7065 C   0  0  0  0  0  0  0  0  0  0  0  0
  -18.6200   19.9224  -26.5448 C   0  0  0  0  0  0  0  0  0  0  0  0
  -20.8105   14.4317  -25.6616 C   0  0  0  0  0  0  0  0  0  0  0  0
  -20.1694   13.6471  -26.5501 C   0  0  0  0  0  0  0  0  0  0  0  0
  -20.3039   13.8361  -28.0122 C   0  0  0  0  0  0  0  0  0  0  0  0
  -20.3472   17.7920  -28.6982 C   0  0  0  0  0  0  0  0  0  0  0  0
  -23.3475   14.5315  -30.1331 C   0  0  0  0  0  0  0  0  0  0  0  0
  -21.3516   15.9832  -30.0612 C   0  0  2  0  0  0  0  0  0  0  0  0
  -21.8558   14.5477  -29.7901 C   0  0  1  0  0  0  0  0  0  0  0  0
  -20.5280   18.5550  -27.3959 C   0  0  0  0  0  0  0  0  0  0  0  0
  -19.7929   13.1303  -22.2610 N   0  0  0  0  0  0  0  0  0  0  0  0
  -20.0321   20.6961  -28.3852 N   0  0  0  0  0  0  0  0  0  0  0  0
  -19.7079   19.7614  -27.3848 N   0  0  0  0  0  0  0  0  0  0  0  0
  -21.5909   14.1006  -28.4273 N   0  0  0  0  0  0  0  0  0  0  0  0
  -21.2963   16.8049  -28.8612 N   0  0  0  0  0  0  0  0  0  0  0  0
  -19.3975   22.4729  -29.6592 O   0  0  0  0  0  0  0  0  0  0  0  0
  -18.3138   19.1434  -25.6558 O   0  0  0  0  0  0  0  0  0  0  0  0
  -19.3310   13.7354  -28.7439 O   0  0  0  0  0  0  0  0  0  0  0  0
  -19.4653   18.0280  -29.5131 O   0  0  0  0  0  0  0  0  0  0  0  0
  -25.4483   17.5695  -33.0612 H   0  0  0  0  0  0  0  0  0  0  0  0
  -23.4699   19.0396  -32.9348 H   0  0  0  0  0  0  0  0  0  0  0  0
  -21.8605   15.6111  -21.3005 H   0  0  0  0  0  0  0  0  0  0  0  0
  -22.0515   15.9235  -23.7497 H   0  0  0  0  0  0  0  0  0  0  0  0
  -25.4861   15.4413  -31.8474 H   0  0  0  0  0  0  0  0  0  0  0  0
  -21.4789   18.3538  -31.6478 H   0  0  0  0  0  0  0  0  0  0  0  0
  -20.4125   13.7914  -20.4193 H   0  0  0  0  0  0  0  0  0  0  0  0
  -19.3074   12.6593  -24.1741 H   0  0  0  0  0  0  0  0  0  0  0  0
  -17.4246   22.8141  -28.0099 H   0  0  0  0  0  0  0  0  0  0  0  0
  -16.9473   21.2798  -26.1360 H   0  0  0  0  0  0  0  0  0  0  0  0
  -21.4684   15.2229  -26.0045 H   0  0  0  0  0  0  0  0  0  0  0  0
  -19.4561   12.8862  -26.2702 H   0  0  0  0  0  0  0  0  0  0  0  0
  -23.9604   14.6702  -29.2380 H   0  0  0  0  0  0  0  0  0  0  0  0
  -23.6341   13.5959  -30.6213 H   0  0  0  0  0  0  0  0  0  0  0  0
  -20.3635   15.9596  -30.5298 H   0  0  0  0  0  0  0  0  0  0  0  0
  -21.3360   13.8541  -30.4596 H   0  0  0  0  0  0  0  0  0  0  0  0
  -21.5770   18.8478  -27.2730 H   0  0  0  0  0  0  0  0  0  0  0  0
  -20.2475   17.8987  -26.5654 H   0  0  0  0  0  0  0  0  0  0  0  0
  -20.8375   20.5173  -28.9769 H   0  0  0  0  0  0  0  0  0  0  0  0
  -22.3509   14.0614  -27.7571 H   0  0  0  0  0  0  0  0  0  0  0  0
  -22.0431   16.7011  -28.1837 H   0  0  0  0  0  0  0  0  0  0  0  0
  1 33  1  0  0  0  0
  1  2  1  0  0  0  0
  1  5  2  0  0  0  0
  2 34  1  0  0  0  0
  2  6  2  0  0  0  0
  3  4  2  0  0  0  0
  3 35  1  0  0  0  0
  3  7  1  0  0  0  0
  4  9  1  0  0  0  0
  4 36  1  0  0  0  0
  5 10  1  0  0  0  0
  5 37  1  0  0  0  0
  6 38  1  0  0  0  0
  6 11  1  0  0  0  0
  7 39  1  0  0  0  0
  7 24  2  0  0  0  0
  8 24  1  0  0  0  0
  8 40  1  0  0  0  0
  8  9  2  0  0  0  0
  9 16  1  0  0  0  0
 10 11  2  0  0  0  0
 10 20  1  0  0  0  0
 21 11  1  0  0  0  0
 12 13  2  0  0  0  0
 12 41  1  0  0  0  0
 12 14  1  0  0  0  0
 13 15  1  0  0  0  0
 13 42  1  0  0  0  0
 14 29  2  0  0  0  0
 14 25  1  0  0  0  0
 15 26  1  0  0  0  0
 15 30  2  0  0  0  0
 16 17  2  0  0  0  0
 16 43  1  0  0  0  0
 17 18  1  0  0  0  0
 17 44  1  0  0  0  0
 18 27  1  0  0  0  0
 18 31  2  0  0  0  0
 19 28  1  0  0  0  0
 19 32  2  0  0  0  0
 19 23  1  0  0  0  0
 20 45  1  0  0  0  0
 20 46  1  0  0  0  0
 22 20  1  0  0  0  0
 21 22  1  0  0  0  0
 21 47  1  0  0  0  0
 21 28  1  0  0  0  0
 22 48  1  0  0  0  0
 22 27  1  0  0  0  0
 23 49  1  0  0  0  0
 23 50  1  0  0  0  0
 23 26  1  0  0  0  0
 25 51  1  0  0  0  0
 25 26  1  0  0  0  0
 27 52  1  0  0  0  0
 28 53  1  0  0  0  0
M  ZZC   1 c1
M  ZZC   2 c2
M  ZZC   3 c3
M  ZZC   4 c4
M  ZZC   5 c5
M  ZZC   6 c6
M  ZZC   7 c7
M  ZZC   8 c8
M  ZZC   9 c9
M  ZZC  10 c10
M  ZZC  11 c11
M  ZZC  12 c12
M  ZZC  13 c13
M  ZZC  14 c14
M  ZZC  15 c15
M  ZZC  16 c16
M  ZZC  17 c17
M  ZZC  18 c18
M  ZZC  19 c19
M  ZZC  20 c20
M  ZZC  21 c21
M  ZZC  22 c22
M  ZZC  23 c23
M  ZZC  24 n1
M  ZZC  25 n2
M  ZZC  26 n3
M  ZZC  27 n4
M  ZZC  28 n5
M  ZZC  29 o1
M  ZZC  30 o2
M  ZZC  31 o3
M  ZZC  32 o4
M  ZZC  33 h1
M  ZZC  34 h2
M  ZZC  35 h3
M  ZZC  36 h4
M  ZZC  37 h5
M  ZZC  38 h6
M  ZZC  39 h7
M  ZZC  40 h8
M  ZZC  41 h9
M  ZZC  42 h10
M  ZZC  43 h11
M  ZZC  44 h12
M  ZZC  45 h13
M  ZZC  46 h14
M  ZZC  47 h15
M  ZZC  48 h16
M  ZZC  49 h17
M  ZZC  50 h18
M  ZZC  51 h19
M  ZZC  52 h20
M  ZZC  53 h21
M  ZZM   1 37
M  ZZI   1 125
M  ZZM   2 37
M  ZZI   2 125
M  ZZM   3 37
M  ZZI   3 125
M  ZZM   4 37
M  ZZI   4 125
M  ZZM   5 37
M  ZZI   5 125
M  ZZM   6 37
M  ZZI   6 125
M  ZZM   7 37
M  ZZI   7 125
M  ZZM   8 37
M  ZZI   8 125
M  ZZM   9 37
M  ZZI   9 124
M  ZZM  10 37
M  ZZI  10 124
M  ZZM  11 37
M  ZZI  11 124
M  ZZM  12 2
M  ZZI  12 120
M  ZZM  13 2
M  ZZI  13 120
M  ZZM  14 3
M  ZZI  14 121
M  ZZM  15 3
M  ZZI  15 121
M  ZZM  16 2
M  ZZI  16 120
M  ZZM  17 2
M  ZZI  17 120
M  ZZM  18 3
M  ZZI  18 121
M  ZZM  19 3
M  ZZI  19 121
M  ZZM  20 1
M  ZZI  20 112
M  ZZM  21 1
M  ZZI  21 113
M  ZZM  22 1
M  ZZI  22 113
M  ZZM  23 1
M  ZZI  23 112
M  ZZM  24 38
M  ZZI  24 223
M  ZZM  25 10
M  ZZI  25 191
M  ZZM  26 10
M  ZZI  26 192
M  ZZM  27 10
M  ZZI  27 211
M  ZZM  28 10
M  ZZI  28 211
M  ZZM  29 7
M  ZZI  29 81
M  ZZM  30 7
M  ZZI  30 81
M  ZZM  31 7
M  ZZI  31 81
M  ZZM  32 7
M  ZZI  32 81
M  ZZM  33 5
M  ZZI  33 1
M  ZZM  34 5
M  ZZI  34 1
M  ZZM  35 5
M  ZZI  35 1
M  ZZM  36 5
M  ZZI  36 1
M  ZZM  37 5
M  ZZI  37 1
M  ZZM  38 5
M  ZZI  38 1
M  ZZM  39 5
M  ZZI  39 1
M  ZZM  40 5
M  ZZI  40 1
M  ZZM  41 5
M  ZZI  41 1
M  ZZM  42 5
M  ZZI  42 1
M  ZZM  43 5
M  ZZI  43 1
M  ZZM  44 5
M  ZZI  44 1
M  ZZM  45 5
M  ZZI  45 1
M  ZZM  46 5
M  ZZI  46 1
M  ZZM  47 5
M  ZZI  47 1
M  ZZM  48 5
M  ZZI  48 1
M  ZZM  49 5
M  ZZI  49 1
M  ZZM  50 5
M  ZZI  50 1
M  ZZM  51 28
M  ZZI  51 11
M  ZZM  52 28
M  ZZI  52 11
M  ZZM  53 28
M  ZZI  53 11
M  END
> <IX>
73

> <NAME>
76

> <Score>
-23.465165

> <Natom>
53

> <Nflex>
4

> <Hbond>
-5.959184

> <Hphob>
-6.81938

> <VwInt>
-36.070677

> <Dsolv>
20.730475

> <SolEl>
12.886541

> <Eintl>
9.663765

> <RecConf>
ND

> <projPath>
icm/

> <NAME_>
76

$$$$
81
  MOLSOFT 08042116533D

 53 56  0  0  1  0  0  0  0  0999 V2000
  -25.1096   17.7035  -32.3751 C   0  0  0  0  0  0  0  0  0  0  0  0
  -24.2791   18.8145  -32.4099 C   0  0  0  0  0  0  0  0  0  0  0  0
  -20.9690   15.2133  -22.0814 C   0  0  0  0  0  0  0  0  0  0  0  0
  -21.1703   15.4561  -23.4314 C   0  0  0  0  0  0  0  0  0  0  0  0
  -24.7319   16.5702  -31.6746 C   0  0  0  0  0  0  0  0  0  0  0  0
  -23.0557   18.7995  -31.7570 C   0  0  0  0  0  0  0  0  0  0  0  0
  -20.2741   14.0812  -21.6999 C   0  0  0  0  0  0  0  0  0  0  0  0
  -19.9608   13.4700  -23.8659 C   0  0  0  0  0  0  0  0  0  0  0  0
  -20.6537   14.5689  -24.3710 C   0  0  0  0  0  0  0  0  0  0  0  0
  -23.5154   16.5701  -31.0089 C   0  0  0  0  0  0  0  0  0  0  0  0
  -22.6896   17.6606  -31.0545 C   0  0  0  0  0  0  0  0  0  0  0  0
  -19.4458   22.0700  -25.7810 C   0  0  0  0  0  0  0  0  0  0  0  0
  -18.0688   23.4816  -24.6964 C   0  0  0  0  0  0  0  0  0  0  0  0
  -18.5030   21.5158  -26.5625 C   0  0  0  0  0  0  0  0  0  0  0  0
  -17.1121   22.0194  -26.3394 C   0  0  0  0  0  0  0  0  0  0  0  0
  -20.9166   14.7834  -25.8084 C   0  0  0  0  0  0  0  0  0  0  0  0
  -18.7567   20.5180  -27.5963 C   0  0  0  0  0  0  0  0  0  0  0  0
  -20.2729   14.1550  -26.8115 C   0  0  0  0  0  0  0  0  0  0  0  0
  -19.9145   19.8726  -27.8462 C   0  0  0  0  0  0  0  0  0  0  0  0
  -20.6560   14.3231  -28.2393 C   0  0  0  0  0  0  0  0  0  0  0  0
  -19.9830   18.9389  -29.0081 C   0  0  0  0  0  0  0  0  0  0  0  0
  -22.9514   15.4851  -30.1569 C   0  0  0  0  0  0  0  0  0  0  0  0
  -21.4091   17.4276  -30.3232 C   0  0  2  0  0  0  0  0  0  0  0  0
  -21.4949   15.9279  -29.9455 C   0  0  1  0  0  0  0  0  0  0  0  0
  -19.7659   13.1930  -22.5644 N   0  0  0  0  0  0  0  0  0  0  0  0
  -19.2756   23.0411  -24.8305 N   0  0  0  0  0  0  0  0  0  0  0  0
  -17.0040   23.0213  -25.4159 N   0  0  0  0  0  0  0  0  0  0  0  0
  -21.2150   18.3441  -29.1989 N   0  0  0  0  0  0  0  0  0  0  0  0
  -21.0145   15.6064  -28.6019 N   0  0  0  0  0  0  0  0  0  0  0  0
  -16.1328   21.5624  -26.9093 O   0  0  0  0  0  0  0  0  0  0  0  0
  -20.6080   13.3688  -29.0004 O   0  0  0  0  0  0  0  0  0  0  0  0
  -19.0302   18.7454  -29.7453 O   0  0  0  0  0  0  0  0  0  0  0  0
  -26.0614   17.7208  -32.8975 H   0  0  0  0  0  0  0  0  0  0  0  0
  -24.5875   19.6980  -32.9599 H   0  0  0  0  0  0  0  0  0  0  0  0
  -21.3582   15.8944  -21.3322 H   0  0  0  0  0  0  0  0  0  0  0  0
  -21.7321   16.3334  -23.7378 H   0  0  0  0  0  0  0  0  0  0  0  0
  -25.3860   15.7068  -31.6583 H   0  0  0  0  0  0  0  0  0  0  0  0
  -22.3978   19.6621  -31.8013 H   0  0  0  0  0  0  0  0  0  0  0  0
  -20.1123   13.8520  -20.6513 H   0  0  0  0  0  0  0  0  0  0  0  0
  -19.5406   12.7270  -24.5305 H   0  0  0  0  0  0  0  0  0  0  0  0
  -20.4783   21.7594  -25.8812 H   0  0  0  0  0  0  0  0  0  0  0  0
  -17.8118   24.2729  -23.9728 H   0  0  0  0  0  0  0  0  0  0  0  0
  -21.7232   15.4758  -26.0275 H   0  0  0  0  0  0  0  0  0  0  0  0
  -17.9033   20.3161  -28.2361 H   0  0  0  0  0  0  0  0  0  0  0  0
  -19.5026   13.4132  -26.6418 H   0  0  0  0  0  0  0  0  0  0  0  0
  -20.8142   20.0166  -27.2609 H   0  0  0  0  0  0  0  0  0  0  0  0
  -23.5024   15.4262  -29.2117 H   0  0  0  0  0  0  0  0  0  0  0  0
  -23.0044   14.5117  -30.6573 H   0  0  0  0  0  0  0  0  0  0  0  0
  -20.5875   17.5660  -31.0304 H   0  0  0  0  0  0  0  0  0  0  0  0
  -20.8722   15.3608  -30.6464 H   0  0  0  0  0  0  0  0  0  0  0  0
  -16.0827   23.3994  -25.2364 H   0  0  0  0  0  0  0  0  0  0  0  0
  -22.0004   18.5595  -28.5950 H   0  0  0  0  0  0  0  0  0  0  0  0
  -20.9488   16.3587  -27.9262 H   0  0  0  0  0  0  0  0  0  0  0  0
  1 33  1  0  0  0  0
  1  2  1  0  0  0  0
  1  5  2  0  0  0  0
  2 34  1  0  0  0  0
  2  6  2  0  0  0  0
  3  4  2  0  0  0  0
  3 35  1  0  0  0  0
  3  7  1  0  0  0  0
  4  9  1  0  0  0  0
  4 36  1  0  0  0  0
  5 10  1  0  0  0  0
  5 37  1  0  0  0  0
  6 38  1  0  0  0  0
  6 11  1  0  0  0  0
  7 39  1  0  0  0  0
  7 25  2  0  0  0  0
  8 25  1  0  0  0  0
  8 40  1  0  0  0  0
  8  9  2  0  0  0  0
  9 16  1  0  0  0  0
 10 11  2  0  0  0  0
 10 22  1  0  0  0  0
 23 11  1  0  0  0  0
 12 14  2  0  0  0  0
 12 41  1  0  0  0  0
 12 26  1  0  0  0  0
 13 26  2  0  0  0  0
 13 42  1  0  0  0  0
 13 27  1  0  0  0  0
 14 17  1  0  0  0  0
 14 15  1  0  0  0  0
 15 27  1  0  0  0  0
 15 30  2  0  0  0  0
 16 18  2  0  0  0  0
 16 43  1  0  0  0  0
 17 19  2  0  0  0  0
 17 44  1  0  0  0  0
 18 20  1  0  0  0  0
 18 45  1  0  0  0  0
 19 21  1  0  0  0  0
 19 46  1  0  0  0  0
 20 29  1  0  0  0  0
 20 31  2  0  0  0  0
 21 28  1  0  0  0  0
 21 32  2  0  0  0  0
 22 47  1  0  0  0  0
 22 48  1  0  0  0  0
 24 22  1  0  0  0  0
 23 24  1  0  0  0  0
 23 49  1  0  0  0  0
 23 28  1  0  0  0  0
 24 50  1  0  0  0  0
 24 29  1  0  0  0  0
 27 51  1  0  0  0  0
 28 52  1  0  0  0  0
 29 53  1  0  0  0  0
M  ZZC   1 c1
M  ZZC   2 c2
M  ZZC   3 c3
M  ZZC   4 c4
M  ZZC   5 c5
M  ZZC   6 c6
M  ZZC   7 c7
M  ZZC   8 c8
M  ZZC   9 c9
M  ZZC  10 c10
M  ZZC  11 c11
M  ZZC  12 c12
M  ZZC  13 c13
M  ZZC  14 c14
M  ZZC  15 c15
M  ZZC  16 c16
M  ZZC  17 c17
M  ZZC  18 c18
M  ZZC  19 c19
M  ZZC  20 c20
M  ZZC  21 c21
M  ZZC  22 c22
M  ZZC  23 c23
M  ZZC  24 c24
M  ZZC  25 n1
M  ZZC  26 n2
M  ZZC  27 n3
M  ZZC  28 n4
M  ZZC  29 n5
M  ZZC  30 o1
M  ZZC  31 o2
M  ZZC  32 o3
M  ZZC  33 h1
M  ZZC  34 h2
M  ZZC  35 h3
M  ZZC  36 h4
M  ZZC  37 h5
M  ZZC  38 h6
M  ZZC  39 h7
M  ZZC  40 h8
M  ZZC  41 h9
M  ZZC  42 h10
M  ZZC  43 h11
M  ZZC  44 h12
M  ZZC  45 h13
M  ZZC  46 h14
M  ZZC  47 h15
M  ZZC  48 h16
M  ZZC  49 h17
M  ZZC  50 h18
M  ZZC  51 h19
M  ZZC  52 h20
M  ZZC  53 h21
M  ZZM   1 37
M  ZZI   1 125
M  ZZM   2 37
M  ZZI   2 125
M  ZZM   3 37
M  ZZI   3 125
M  ZZM   4 37
M  ZZI   4 125
M  ZZM   5 37
M  ZZI   5 125
M  ZZM   6 37
M  ZZI   6 125
M  ZZM   7 37
M  ZZI   7 125
M  ZZM   8 37
M  ZZI   8 125
M  ZZM   9 37
M  ZZI   9 124
M  ZZM  10 37
M  ZZI  10 124
M  ZZM  11 37
M  ZZI  11 124
M  ZZM  12 2
M  ZZI  12 120
M  ZZM  13 3
M  ZZI  13 121
M  ZZM  14 2
M  ZZI  14 120
M  ZZM  15 3
M  ZZI  15 121
M  ZZM  16 2
M  ZZI  16 120
M  ZZM  17 2
M  ZZI  17 120
M  ZZM  18 2
M  ZZI  18 120
M  ZZM  19 2
M  ZZI  19 120
M  ZZM  20 3
M  ZZI  20 121
M  ZZM  21 3
M  ZZI  21 121
M  ZZM  22 1
M  ZZI  22 112
M  ZZM  23 1
M  ZZI  23 113
M  ZZM  24 1
M  ZZI  24 113
M  ZZM  25 38
M  ZZI  25 223
M  ZZM  26 9
M  ZZI  26 220
M  ZZM  27 10
M  ZZI  27 191
M  ZZM  28 10
M  ZZI  28 211
M  ZZM  29 10
M  ZZI  29 211
M  ZZM  30 7
M  ZZI  30 81
M  ZZM  31 7
M  ZZI  31 81
M  ZZM  32 7
M  ZZI  32 81
M  ZZM  33 5
M  ZZI  33 1
M  ZZM  34 5
M  ZZI  34 1
M  ZZM  35 5
M  ZZI  35 1
M  ZZM  36 5
M  ZZI  36 1
M  ZZM  37 5
M  ZZI  37 1
M  ZZM  38 5
M  ZZI  38 1
M  ZZM  39 5
M  ZZI  39 1
M  ZZM  40 5
M  ZZI  40 1
M  ZZM  41 5
M  ZZI  41 1
M  ZZM  42 5
M  ZZI  42 1
M  ZZM  43 5
M  ZZI  43 1
M  ZZM  44 5
M  ZZI  44 1
M  ZZM  45 5
M  ZZI  45 1
M  ZZM  46 5
M  ZZI  46 1
M  ZZM  47 5
M  ZZI  47 1
M  ZZM  48 5
M  ZZI  48 1
M  ZZM  49 5
M  ZZI  49 1
M  ZZM  50 5
M  ZZI  50 1
M  ZZM  51 28
M  ZZI  51 11
M  ZZM  52 28
M  ZZI  52 11
M  ZZM  53 28
M  ZZI  53 11
M  END
> <IX>
74

> <NAME>
81

> <Score>
-26.686135

> <Natom>
53

> <Nflex>
2

> <Hbond>
-4.896781

> <Hphob>
-6.887821

> <VwInt>
-39.92968

> <Dsolv>
20.654459

> <SolEl>
14.337148

> <Eintl>
6.823132

> <RecConf>
ND

> <projPath>
icm/

> <NAME_>
81

$$$$
60
  MOLSOFT 08042116553D

 59 62  0  0  1  0  0  0  0  0999 V2000
  -22.2247   12.4036  -29.6297 C   0  0  0  0  0  0  0  0  0  0  0  0
  -20.9500   12.6845  -30.0888 C   0  0  0  0  0  0  0  0  0  0  0  0
  -22.7167   13.0443  -28.5133 C   0  0  0  0  0  0  0  0  0  0  0  0
  -20.1433   13.6055  -29.4488 C   0  0  0  0  0  0  0  0  0  0  0  0
  -21.9059   13.9507  -27.8705 C   0  0  0  0  0  0  0  0  0  0  0  0
  -20.6544   14.2391  -28.3341 C   0  0  0  0  0  0  0  0  0  0  0  0
  -22.1855   15.2904  -20.4925 C   0  0  0  0  0  0  0  0  0  0  0  0
  -21.8421   14.0453  -20.8466 C   0  0  0  0  0  0  0  0  0  0  0  0
  -19.1814   22.6515  -25.6915 C   0  0  0  0  0  0  0  0  0  0  0  0
  -18.1114   22.1425  -26.3191 C   0  0  0  0  0  0  0  0  0  0  0  0
  -21.3728   16.4651  -20.8750 C   0  0  0  0  0  0  0  0  0  0  0  0
  -20.6683   13.7743  -21.7020 C   0  0  0  0  0  0  0  0  0  0  0  0
  -16.7909   22.7160  -25.9582 C   0  0  0  0  0  0  0  0  0  0  0  0
  -18.0403   24.1443  -24.4601 C   0  0  0  0  0  0  0  0  0  0  0  0
  -18.2305   21.0891  -27.3011 C   0  0  0  0  0  0  0  0  0  0  0  0
  -18.8823   19.9482  -27.0277 C   0  0  0  0  0  0  0  0  0  0  0  0
  -19.1207   18.9251  -28.0721 C   0  0  0  0  0  0  0  0  0  0  0  0
  -19.5555   15.6127  -24.3113 C   0  0  0  0  0  0  0  0  0  0  0  0
  -22.2669   14.7516  -26.6778 C   0  0  0  0  0  0  0  0  0  0  0  0
  -19.9986   15.3049  -27.5297 C   0  0  2  0  0  0  0  0  0  0  0  0
  -20.9499   15.4310  -26.3222 C   0  0  2  0  0  0  0  0  0  0  0  0
  -17.9494   25.2572  -23.4490 C   0  0  0  0  0  0  0  0  0  0  0  0
  -18.9502   14.8628  -23.1374 C   0  0  0  0  0  0  0  0  0  0  0  0
  -19.8619   16.5996  -28.3330 C   0  0  0  0  0  0  0  0  0  0  0  0
  -19.1960   23.6492  -24.7598 N   0  0  0  0  0  0  0  0  0  0  0  0
  -16.8609   23.7136  -25.0240 N   0  0  0  0  0  0  0  0  0  0  0  0
  -20.2368   16.1854  -21.5933 N   0  0  0  0  0  0  0  0  0  0  0  0
  -19.9319   14.8910  -22.0598 N   0  0  0  0  0  0  0  0  0  0  0  0
  -19.3988   17.7009  -27.5161 N   0  0  0  0  0  0  0  0  0  0  0  0
  -20.3337   14.8358  -25.1437 N   0  0  0  0  0  0  0  0  0  0  0  0
  -21.7012   17.5932  -20.5430 O   0  0  0  0  0  0  0  0  0  0  0  0
  -20.4166   12.6316  -22.0559 O   0  0  0  0  0  0  0  0  0  0  0  0
  -15.7447   22.2949  -26.4314 O   0  0  0  0  0  0  0  0  0  0  0  0
  -19.0955   19.1663  -29.2697 O   0  0  0  0  0  0  0  0  0  0  0  0
  -19.4172   16.8193  -24.4669 O   0  0  0  0  0  0  0  0  0  0  0  0
  -22.8406   11.6778  -30.1407 H   0  0  0  0  0  0  0  0  0  0  0  0
  -20.5838   12.1856  -30.9705 H   0  0  0  0  0  0  0  0  0  0  0  0
  -23.7153   12.8447  -28.1531 H   0  0  0  0  0  0  0  0  0  0  0  0
  -19.1488   13.8329  -29.8207 H   0  0  0  0  0  0  0  0  0  0  0  0
  -23.0624   15.4816  -19.8855 H   0  0  0  0  0  0  0  0  0  0  0  0
  -22.4339   13.1889  -20.5451 H   0  0  0  0  0  0  0  0  0  0  0  0
  -20.1648   22.2576  -25.9200 H   0  0  0  0  0  0  0  0  0  0  0  0
  -17.7840   21.2698  -28.2749 H   0  0  0  0  0  0  0  0  0  0  0  0
  -19.3044   19.7562  -26.0467 H   0  0  0  0  0  0  0  0  0  0  0  0
  -23.0357   15.4849  -26.9466 H   0  0  0  0  0  0  0  0  0  0  0  0
  -22.6192   14.1192  -25.8624 H   0  0  0  0  0  0  0  0  0  0  0  0
  -19.0136   14.9576  -27.2061 H   0  0  0  0  0  0  0  0  0  0  0  0
  -21.1643   16.4741  -26.0673 H   0  0  0  0  0  0  0  0  0  0  0  0
  -18.4095   24.9329  -22.5116 H   0  0  0  0  0  0  0  0  0  0  0  0
  -18.5060   26.1228  -23.8205 H   0  0  0  0  0  0  0  0  0  0  0  0
  -16.9153   25.5526  -23.2573 H   0  0  0  0  0  0  0  0  0  0  0  0
  -18.7224   13.8317  -23.4213 H   0  0  0  0  0  0  0  0  0  0  0  0
  -18.0254   15.3470  -22.8121 H   0  0  0  0  0  0  0  0  0  0  0  0
  -19.1594   16.4716  -29.1646 H   0  0  0  0  0  0  0  0  0  0  0  0
  -20.8185   16.9005  -28.7758 H   0  0  0  0  0  0  0  0  0  0  0  0
  -15.9854   24.1193  -24.7227 H   0  0  0  0  0  0  0  0  0  0  0  0
  -19.6140   16.9467  -21.8560 H   0  0  0  0  0  0  0  0  0  0  0  0
  -19.3534   17.5876  -26.5059 H   0  0  0  0  0  0  0  0  0  0  0  0
  -20.4118   13.8340  -24.9841 H   0  0  0  0  0  0  0  0  0  0  0  0
  1 36  1  0  0  0  0
  1  2  1  0  0  0  0
  1  3  2  0  0  0  0
  2 37  1  0  0  0  0
  2  4  2  0  0  0  0
  3  5  1  0  0  0  0
  3 38  1  0  0  0  0
  4 39  1  0  0  0  0
  4  6  1  0  0  0  0
  5 19  1  0  0  0  0
  5  6  2  0  0  0  0
 20  6  1  0  0  0  0
  7  8  2  0  0  0  0
  7 40  1  0  0  0  0
  7 11  1  0  0  0  0
  8 12  1  0  0  0  0
  8 41  1  0  0  0  0
  9 25  1  0  0  0  0
  9 42  1  0  0  0  0
  9 10  2  0  0  0  0
 10 15  1  0  0  0  0
 10 13  1  0  0  0  0
 11 31  2  0  0  0  0
 11 27  1  0  0  0  0
 12 28  1  0  0  0  0
 12 32  2  0  0  0  0
 13 33  2  0  0  0  0
 13 26  1  0  0  0  0
 14 26  1  0  0  0  0
 14 22  1  0  0  0  0
 14 25  2  0  0  0  0
 15 16  2  0  0  0  0
 15 43  1  0  0  0  0
 16 17  1  0  0  0  0
 16 44  1  0  0  0  0
 17 29  1  0  0  0  0
 17 34  2  0  0  0  0
 18 30  1  0  0  0  0
 18 35  2  0  0  0  0
 18 23  1  0  0  0  0
 21 19  1  0  0  0  0
 19 45  1  0  0  0  0
 19 46  1  0  0  0  0
 20 47  1  0  0  0  0
 20 21  1  0  0  0  0
 20 24  1  0  0  0  0
 21 48  1  0  0  0  0
 21 30  1  0  0  0  0
 22 49  1  0  0  0  0
 22 50  1  0  0  0  0
 22 51  1  0  0  0  0
 23 52  1  0  0  0  0
 23 53  1  0  0  0  0
 23 28  1  0  0  0  0
 24 54  1  0  0  0  0
 24 55  1  0  0  0  0
 24 29  1  0  0  0  0
 26 56  1  0  0  0  0
 27 57  1  0  0  0  0
 27 28  1  0  0  0  0
 29 58  1  0  0  0  0
 30 59  1  0  0  0  0
M  ZZC   1 c1
M  ZZC   2 c2
M  ZZC   3 c3
M  ZZC   4 c4
M  ZZC   5 c5
M  ZZC   6 c6
M  ZZC   7 c7
M  ZZC   8 c8
M  ZZC   9 c9
M  ZZC  10 c10
M  ZZC  11 c11
M  ZZC  12 c12
M  ZZC  13 c13
M  ZZC  14 c14
M  ZZC  15 c15
M  ZZC  16 c16
M  ZZC  17 c17
M  ZZC  18 c18
M  ZZC  19 c19
M  ZZC  20 c20
M  ZZC  21 c21
M  ZZC  22 c22
M  ZZC  23 c23
M  ZZC  24 c24
M  ZZC  25 n1
M  ZZC  26 n2
M  ZZC  27 n3
M  ZZC  28 n4
M  ZZC  29 n5
M  ZZC  30 n6
M  ZZC  31 o1
M  ZZC  32 o2
M  ZZC  33 o3
M  ZZC  34 o4
M  ZZC  35 o5
M  ZZC  36 h1
M  ZZC  37 h2
M  ZZC  38 h3
M  ZZC  39 h4
M  ZZC  40 h5
M  ZZC  41 h6
M  ZZC  42 h7
M  ZZC  43 h8
M  ZZC  44 h9
M  ZZC  45 h10
M  ZZC  46 h11
M  ZZC  47 h12
M  ZZC  48 h13
M  ZZC  49 h14
M  ZZC  50 h15
M  ZZC  51 h16
M  ZZC  52 h17
M  ZZC  53 h18
M  ZZC  54 h19
M  ZZC  55 h20
M  ZZC  56 h21
M  ZZC  57 h22
M  ZZC  58 h23
M  ZZC  59 h24
M  ZZM   1 37
M  ZZI   1 125
M  ZZM   2 37
M  ZZI   2 125
M  ZZM   3 37
M  ZZI   3 125
M  ZZM   4 37
M  ZZI   4 125
M  ZZM   5 37
M  ZZI   5 124
M  ZZM   6 37
M  ZZI   6 124
M  ZZM   7 2
M  ZZI   7 120
M  ZZM   8 2
M  ZZI   8 120
M  ZZM   9 2
M  ZZI   9 120
M  ZZM  10 2
M  ZZI  10 120
M  ZZM  11 3
M  ZZI  11 121
M  ZZM  12 3
M  ZZI  12 121
M  ZZM  13 3
M  ZZI  13 121
M  ZZM  14 3
M  ZZI  14 121
M  ZZM  15 2
M  ZZI  15 120
M  ZZM  16 2
M  ZZI  16 120
M  ZZM  17 3
M  ZZI  17 121
M  ZZM  18 3
M  ZZI  18 121
M  ZZM  19 1
M  ZZI  19 112
M  ZZM  20 1
M  ZZI  20 113
M  ZZM  21 1
M  ZZI  21 113
M  ZZM  22 1
M  ZZI  22 111
M  ZZM  23 1
M  ZZI  23 112
M  ZZM  24 1
M  ZZI  24 112
M  ZZM  25 9
M  ZZI  25 220
M  ZZM  26 10
M  ZZI  26 191
M  ZZM  27 10
M  ZZI  27 191
M  ZZM  28 10
M  ZZI  28 192
M  ZZM  29 10
M  ZZI  29 211
M  ZZM  30 10
M  ZZI  30 211
M  ZZM  31 7
M  ZZI  31 81
M  ZZM  32 7
M  ZZI  32 81
M  ZZM  33 7
M  ZZI  33 81
M  ZZM  34 7
M  ZZI  34 81
M  ZZM  35 7
M  ZZI  35 81
M  ZZM  36 5
M  ZZI  36 1
M  ZZM  37 5
M  ZZI  37 1
M  ZZM  38 5
M  ZZI  38 1
M  ZZM  39 5
M  ZZI  39 1
M  ZZM  40 5
M  ZZI  40 1
M  ZZM  41 5
M  ZZI  41 1
M  ZZM  42 5
M  ZZI  42 1
M  ZZM  43 5
M  ZZI  43 1
M  ZZM  44 5
M  ZZI  44 1
M  ZZM  45 5
M  ZZI  45 1
M  ZZM  46 5
M  ZZI  46 1
M  ZZM  47 5
M  ZZI  47 1
M  ZZM  48 5
M  ZZI  48 1
M  ZZM  49 5
M  ZZI  49 1
M  ZZM  50 5
M  ZZI  50 1
M  ZZM  51 5
M  ZZI  51 1
M  ZZM  52 5
M  ZZI  52 1
M  ZZM  53 5
M  ZZI  53 1
M  ZZM  54 5
M  ZZI  54 1
M  ZZM  55 5
M  ZZI  55 1
M  ZZM  56 28
M  ZZI  56 11
M  ZZM  57 28
M  ZZI  57 11
M  ZZM  58 28
M  ZZI  58 11
M  ZZM  59 28
M  ZZI  59 11
M  END
> <IX>
75

> <NAME>
60

> <Score>
-44.544264

> <Natom>
59

> <Nflex>
5

> <Hbond>
-7.983557

> <Hphob>
-6.361728

> <VwInt>
-43.183909

> <Dsolv>
18.134097

> <SolEl>
4.269302

> <Eintl>
6.136819

> <RecConf>
ND

> <projPath>
icm/

> <NAME_>
60

$$$$
83
  MOLSOFT 08042116583D

 56 59  0  0  1  0  0  0  0  0999 V2000
  -21.1015   12.6288  -29.7838 C   0  0  0  0  0  0  0  0  0  0  0  0
  -22.4105   12.8330  -29.3795 C   0  0  0  0  0  0  0  0  0  0  0  0
  -20.1613   13.6448  -29.7189 C   0  0  0  0  0  0  0  0  0  0  0  0
  -22.7925   14.0599  -28.8724 C   0  0  0  0  0  0  0  0  0  0  0  0
  -20.5621   14.8720  -29.2325 C   0  0  0  0  0  0  0  0  0  0  0  0
  -21.8458   15.0641  -28.7923 C   0  0  0  0  0  0  0  0  0  0  0  0
  -19.0111   22.8490  -25.6489 C   0  0  0  0  0  0  0  0  0  0  0  0
  -22.3275   15.4234  -21.4873 C   0  0  0  0  0  0  0  0  0  0  0  0
  -17.5883   24.1062  -24.4589 C   0  0  0  0  0  0  0  0  0  0  0  0
  -18.0688   22.2197  -26.3682 C   0  0  0  0  0  0  0  0  0  0  0  0
  -21.4155   14.7491  -22.2071 C   0  0  0  0  0  0  0  0  0  0  0  0
  -16.6613   22.5935  -26.0788 C   0  0  0  0  0  0  0  0  0  0  0  0
  -20.8028   13.5667  -21.5476 C   0  0  0  0  0  0  0  0  0  0  0  0
  -22.2587   14.0549  -19.6981 C   0  0  0  0  0  0  0  0  0  0  0  0
  -18.3799   21.2489  -27.3971 C   0  0  0  0  0  0  0  0  0  0  0  0
  -20.9883   15.1179  -23.5403 C   0  0  0  0  0  0  0  0  0  0  0  0
  -19.2340   20.2316  -27.1984 C   0  0  0  0  0  0  0  0  0  0  0  0
  -21.8077   15.6051  -24.4874 C   0  0  0  0  0  0  0  0  0  0  0  0
  -19.5917   19.3015  -28.2999 C   0  0  0  0  0  0  0  0  0  0  0  0
  -21.2566   15.8568  -25.8411 C   0  0  0  0  0  0  0  0  0  0  0  0
  -19.7182   16.0849  -29.0473 C   0  0  0  0  0  0  0  0  0  0  0  0
  -22.0216   16.4125  -28.1822 C   0  0  2  0  0  0  0  0  0  0  0  0
  -20.7673   17.1519  -28.7131 C   0  0  1  0  0  0  0  0  0  0  0  0
  -22.7114   13.5709  -18.3463 C   0  0  0  0  0  0  0  0  0  0  0  0
  -18.8212   23.7940  -24.6795 N   0  0  0  0  0  0  0  0  0  0  0  0
  -22.8007   15.0948  -20.2450 N   0  0  0  0  0  0  0  0  0  0  0  0
  -16.5261   23.5515  -25.1167 N   0  0  0  0  0  0  0  0  0  0  0  0
  -21.2706   13.3165  -20.2947 N   0  0  0  0  0  0  0  0  0  0  0  0
  -22.2138   16.3053  -26.7312 N   0  0  0  0  0  0  0  0  0  0  0  0
  -20.2642   18.1974  -27.8316 N   0  0  0  0  0  0  0  0  0  0  0  0
  -15.7152   22.0541  -26.6312 O   0  0  0  0  0  0  0  0  0  0  0  0
  -19.9636   12.8695  -22.0967 O   0  0  0  0  0  0  0  0  0  0  0  0
  -19.3224   19.5147  -29.4725 O   0  0  0  0  0  0  0  0  0  0  0  0
  -20.0767   15.6715  -26.0923 O   0  0  0  0  0  0  0  0  0  0  0  0
  -20.8130   11.6540  -30.1408 H   0  0  0  0  0  0  0  0  0  0  0  0
  -23.1282   12.0218  -29.4378 H   0  0  0  0  0  0  0  0  0  0  0  0
  -19.1341   13.4812  -30.0257 H   0  0  0  0  0  0  0  0  0  0  0  0
  -23.8033   14.2264  -28.5254 H   0  0  0  0  0  0  0  0  0  0  0  0
  -20.0532   22.6161  -25.8251 H   0  0  0  0  0  0  0  0  0  0  0  0
  -22.7836   16.3173  -21.8996 H   0  0  0  0  0  0  0  0  0  0  0  0
  -17.3074   24.8599  -23.7053 H   0  0  0  0  0  0  0  0  0  0  0  0
  -17.8800   21.3820  -28.3527 H   0  0  0  0  0  0  0  0  0  0  0  0
  -19.9426   14.9234  -23.7662 H   0  0  0  0  0  0  0  0  0  0  0  0
  -19.7115   20.0736  -26.2378 H   0  0  0  0  0  0  0  0  0  0  0  0
  -22.8640   15.7755  -24.3184 H   0  0  0  0  0  0  0  0  0  0  0  0
  -18.9941   15.9326  -28.2451 H   0  0  0  0  0  0  0  0  0  0  0  0
  -19.1713   16.3407  -29.9582 H   0  0  0  0  0  0  0  0  0  0  0  0
  -22.9229   16.8928  -28.5800 H   0  0  0  0  0  0  0  0  0  0  0  0
  -21.0412   17.6344  -29.6611 H   0  0  0  0  0  0  0  0  0  0  0  0
  -23.6437   13.0113  -18.4666 H   0  0  0  0  0  0  0  0  0  0  0  0
  -22.8961   14.4252  -17.6882 H   0  0  0  0  0  0  0  0  0  0  0  0
  -21.9648   12.9146  -17.8901 H   0  0  0  0  0  0  0  0  0  0  0  0
  -15.5909   23.8373  -24.8624 H   0  0  0  0  0  0  0  0  0  0  0  0
  -20.8744   12.5157  -19.8204 H   0  0  0  0  0  0  0  0  0  0  0  0
  -23.1625   16.4311  -26.3972 H   0  0  0  0  0  0  0  0  0  0  0  0
  -20.3435   18.0455  -26.8323 H   0  0  0  0  0  0  0  0  0  0  0  0
  1 35  1  0  0  0  0
  1  2  1  0  0  0  0
  1  3  2  0  0  0  0
  2 36  1  0  0  0  0
  2  4  2  0  0  0  0
  3  5  1  0  0  0  0
  3 37  1  0  0  0  0
  4 38  1  0  0  0  0
  4  6  1  0  0  0  0
  5 21  1  0  0  0  0
  5  6  2  0  0  0  0
 22  6  1  0  0  0  0
  7 25  1  0  0  0  0
  7 39  1  0  0  0  0
  7 10  2  0  0  0  0
  8 26  1  0  0  0  0
  8 40  1  0  0  0  0
  8 11  2  0  0  0  0
  9 27  1  0  0  0  0
  9 41  1  0  0  0  0
  9 25  2  0  0  0  0
 10 15  1  0  0  0  0
 10 12  1  0  0  0  0
 11 16  1  0  0  0  0
 11 13  1  0  0  0  0
 12 31  2  0  0  0  0
 12 27  1  0  0  0  0
 13 32  2  0  0  0  0
 13 28  1  0  0  0  0
 14 28  1  0  0  0  0
 14 24  1  0  0  0  0
 14 26  2  0  0  0  0
 15 17  2  0  0  0  0
 15 42  1  0  0  0  0
 16 18  2  0  0  0  0
 16 43  1  0  0  0  0
 17 19  1  0  0  0  0
 17 44  1  0  0  0  0
 18 20  1  0  0  0  0
 18 45  1  0  0  0  0
 19 30  1  0  0  0  0
 19 33  2  0  0  0  0
 20 29  1  0  0  0  0
 20 34  2  0  0  0  0
 23 21  1  0  0  0  0
 21 46  1  0  0  0  0
 21 47  1  0  0  0  0
 22 48  1  0  0  0  0
 22 29  1  0  0  0  0
 22 23  1  0  0  0  0
 23 49  1  0  0  0  0
 23 30  1  0  0  0  0
 24 50  1  0  0  0  0
 24 51  1  0  0  0  0
 24 52  1  0  0  0  0
 27 53  1  0  0  0  0
 28 54  1  0  0  0  0
 29 55  1  0  0  0  0
 30 56  1  0  0  0  0
M  ZZC   1 c1
M  ZZC   2 c2
M  ZZC   3 c3
M  ZZC   4 c4
M  ZZC   5 c5
M  ZZC   6 c6
M  ZZC   7 c7
M  ZZC   8 c8
M  ZZC   9 c9
M  ZZC  10 c10
M  ZZC  11 c11
M  ZZC  12 c12
M  ZZC  13 c13
M  ZZC  14 c14
M  ZZC  15 c15
M  ZZC  16 c16
M  ZZC  17 c17
M  ZZC  18 c18
M  ZZC  19 c19
M  ZZC  20 c20
M  ZZC  21 c21
M  ZZC  22 c22
M  ZZC  23 c23
M  ZZC  24 c24
M  ZZC  25 n1
M  ZZC  26 n2
M  ZZC  27 n3
M  ZZC  28 n4
M  ZZC  29 n5
M  ZZC  30 n6
M  ZZC  31 o1
M  ZZC  32 o2
M  ZZC  33 o3
M  ZZC  34 o4
M  ZZC  35 h1
M  ZZC  36 h2
M  ZZC  37 h3
M  ZZC  38 h4
M  ZZC  39 h5
M  ZZC  40 h6
M  ZZC  41 h7
M  ZZC  42 h8
M  ZZC  43 h9
M  ZZC  44 h10
M  ZZC  45 h11
M  ZZC  46 h12
M  ZZC  47 h13
M  ZZC  48 h14
M  ZZC  49 h15
M  ZZC  50 h16
M  ZZC  51 h17
M  ZZC  52 h18
M  ZZC  53 h19
M  ZZC  54 h20
M  ZZC  55 h21
M  ZZC  56 h22
M  ZZM   1 37
M  ZZI   1 125
M  ZZM   2 37
M  ZZI   2 125
M  ZZM   3 37
M  ZZI   3 125
M  ZZM   4 37
M  ZZI   4 125
M  ZZM   5 37
M  ZZI   5 124
M  ZZM   6 37
M  ZZI   6 124
M  ZZM   7 2
M  ZZI   7 120
M  ZZM   8 2
M  ZZI   8 120
M  ZZM   9 3
M  ZZI   9 121
M  ZZM  10 2
M  ZZI  10 120
M  ZZM  11 2
M  ZZI  11 120
M  ZZM  12 3
M  ZZI  12 121
M  ZZM  13 3
M  ZZI  13 121
M  ZZM  14 3
M  ZZI  14 121
M  ZZM  15 2
M  ZZI  15 120
M  ZZM  16 2
M  ZZI  16 120
M  ZZM  17 2
M  ZZI  17 120
M  ZZM  18 2
M  ZZI  18 120
M  ZZM  19 3
M  ZZI  19 121
M  ZZM  20 3
M  ZZI  20 121
M  ZZM  21 1
M  ZZI  21 112
M  ZZM  22 1
M  ZZI  22 113
M  ZZM  23 1
M  ZZI  23 113
M  ZZM  24 1
M  ZZI  24 111
M  ZZM  25 9
M  ZZI  25 220
M  ZZM  26 9
M  ZZI  26 220
M  ZZM  27 10
M  ZZI  27 191
M  ZZM  28 10
M  ZZI  28 191
M  ZZM  29 10
M  ZZI  29 211
M  ZZM  30 10
M  ZZI  30 211
M  ZZM  31 7
M  ZZI  31 81
M  ZZM  32 7
M  ZZI  32 81
M  ZZM  33 7
M  ZZI  33 81
M  ZZM  34 7
M  ZZI  34 81
M  ZZM  35 5
M  ZZI  35 1
M  ZZM  36 5
M  ZZI  36 1
M  ZZM  37 5
M  ZZI  37 1
M  ZZM  38 5
M  ZZI  38 1
M  ZZM  39 5
M  ZZI  39 1
M  ZZM  40 5
M  ZZI  40 1
M  ZZM  41 5
M  ZZI  41 1
M  ZZM  42 5
M  ZZI  42 1
M  ZZM  43 5
M  ZZI  43 1
M  ZZM  44 5
M  ZZI  44 1
M  ZZM  45 5
M  ZZI  45 1
M  ZZM  46 5
M  ZZI  46 1
M  ZZM  47 5
M  ZZI  47 1
M  ZZM  48 5
M  ZZI  48 1
M  ZZM  49 5
M  ZZI  49 1
M  ZZM  50 5
M  ZZI  50 1
M  ZZM  51 5
M  ZZI  51 1
M  ZZM  52 5
M  ZZI  52 1
M  ZZM  53 28
M  ZZI  53 11
M  ZZM  54 28
M  ZZI  54 11
M  ZZM  55 28
M  ZZI  55 11
M  ZZM  56 28
M  ZZI  56 11
M  END
> <IX>
76

> <NAME>
83

> <Score>
-36.09554

> <Natom>
56

> <Nflex>
2

> <Hbond>
-6.124876

> <Hphob>
-6.349283

> <VwInt>
-42.848363

> <Dsolv>
21.399161

> <SolEl>
9.143788

> <Eintl>
5.364179

> <RecConf>
ND

> <projPath>
icm/

> <NAME_>
83

$$$$
61
  MOLSOFT 08042117003D

 58 61  0  0  1  0  0  0  0  0999 V2000
  -21.3237   14.8915  -22.4602 C   0  0  0  0  0  0  0  0  0  0  0  0
  -20.2864   14.0982  -22.9080 C   0  0  0  0  0  0  0  0  0  0  0  0
  -22.1410   15.5371  -23.3713 C   0  0  0  0  0  0  0  0  0  0  0  0
  -20.0659   13.9509  -24.2662 C   0  0  0  0  0  0  0  0  0  0  0  0
  -22.7340   16.0446  -25.6671 C   0  0  0  0  0  0  0  0  0  0  0  0
  -22.4524   15.9732  -27.0206 C   0  0  0  0  0  0  0  0  0  0  0  0
  -20.6236   14.5060  -26.5551 C   0  0  0  0  0  0  0  0  0  0  0  0
  -21.9274   15.3958  -24.7395 C   0  0  0  0  0  0  0  0  0  0  0  0
  -20.8765   14.6026  -25.1910 C   0  0  0  0  0  0  0  0  0  0  0  0
  -21.3603   15.2428  -27.4864 C   0  0  0  0  0  0  0  0  0  0  0  0
  -22.0196   20.4182  -31.6933 C   0  0  0  0  0  0  0  0  0  0  0  0
  -23.1681   20.1430  -31.0644 C   0  0  0  0  0  0  0  0  0  0  0  0
  -19.3396   22.0316  -25.7996 C   0  0  0  0  0  0  0  0  0  0  0  0
  -18.1335   23.5446  -24.6502 C   0  0  0  0  0  0  0  0  0  0  0  0
  -18.3102   21.5538  -26.5169 C   0  0  0  0  0  0  0  0  0  0  0  0
  -21.2207   19.3613  -32.3409 C   0  0  0  0  0  0  0  0  0  0  0  0
  -23.7173   18.7728  -30.9890 C   0  0  0  0  0  0  0  0  0  0  0  0
  -16.9817   22.1713  -26.2463 C   0  0  0  0  0  0  0  0  0  0  0  0
  -18.4481   20.5389  -27.5459 C   0  0  0  0  0  0  0  0  0  0  0  0
  -19.1480   19.3985  -27.4098 C   0  0  0  0  0  0  0  0  0  0  0  0
  -19.2320   18.4246  -28.5348 C   0  0  0  0  0  0  0  0  0  0  0  0
  -22.6246   15.4412  -30.7136 C   0  0  0  0  0  0  0  0  0  0  0  0
  -23.3618   16.3811  -31.6604 C   0  0  0  0  0  0  0  0  0  0  0  0
  -19.4699   15.9650  -28.9621 C   0  0  0  0  0  0  0  0  0  0  0  0
  -20.8743   15.3253  -28.9260 C   0  0  2  0  0  0  0  0  0  0  0  0
  -19.2961   23.0147  -24.8466 N   0  0  0  0  0  0  0  0  0  0  0  0
  -16.9969   23.1694  -25.3108 N   0  0  0  0  0  0  0  0  0  0  0  0
  -21.7184   18.0825  -32.2272 N   0  0  0  0  0  0  0  0  0  0  0  0
  -22.9427   17.7862  -31.5834 N   0  0  0  0  0  0  0  0  0  0  0  0
  -19.3441   17.1281  -28.0849 N   0  0  0  0  0  0  0  0  0  0  0  0
  -21.7651   16.0585  -29.8229 N   0  0  0  0  0  0  0  0  0  0  0  0
  -20.1901   19.6435  -32.9308 O   0  0  0  0  0  0  0  0  0  0  0  0
  -24.7882   18.5857  -30.4320 O   0  0  0  0  0  0  0  0  0  0  0  0
  -15.9532   21.7978  -26.7881 O   0  0  0  0  0  0  0  0  0  0  0  0
  -19.1936   18.7564  -29.7099 O   0  0  0  0  0  0  0  0  0  0  0  0
  -22.8061   14.2320  -30.7529 O   0  0  0  0  0  0  0  0  0  0  0  0
  -21.4950   15.0092  -21.3947 H   0  0  0  0  0  0  0  0  0  0  0  0
  -19.6385   13.6034  -22.1919 H   0  0  0  0  0  0  0  0  0  0  0  0
  -22.9387   16.1691  -22.9981 H   0  0  0  0  0  0  0  0  0  0  0  0
  -19.2393   13.3314  -24.5966 H   0  0  0  0  0  0  0  0  0  0  0  0
  -23.5763   16.6475  -25.3407 H   0  0  0  0  0  0  0  0  0  0  0  0
  -23.0767   16.5402  -27.7039 H   0  0  0  0  0  0  0  0  0  0  0  0
  -19.7875   13.9000  -26.8941 H   0  0  0  0  0  0  0  0  0  0  0  0
  -21.6316   21.4286  -31.7508 H   0  0  0  0  0  0  0  0  0  0  0  0
  -23.7498   20.9262  -30.5928 H   0  0  0  0  0  0  0  0  0  0  0  0
  -20.3361   21.6365  -25.9675 H   0  0  0  0  0  0  0  0  0  0  0  0
  -17.9781   24.3511  -23.9146 H   0  0  0  0  0  0  0  0  0  0  0  0
  -17.9172   20.7444  -28.4687 H   0  0  0  0  0  0  0  0  0  0  0  0
  -19.6522   19.1387  -26.4855 H   0  0  0  0  0  0  0  0  0  0  0  0
  -23.2143   16.0388  -32.6892 H   0  0  0  0  0  0  0  0  0  0  0  0
  -24.4298   16.3118  -31.4305 H   0  0  0  0  0  0  0  0  0  0  0  0
  -18.7220   15.2421  -28.6236 H   0  0  0  0  0  0  0  0  0  0  0  0
  -19.1975   16.2465  -29.9821 H   0  0  0  0  0  0  0  0  0  0  0  0
  -20.7993   14.3054  -29.3209 H   0  0  0  0  0  0  0  0  0  0  0  0
  -16.1191   23.6200  -25.0844 H   0  0  0  0  0  0  0  0  0  0  0  0
  -21.1855   17.3176  -32.6336 H   0  0  0  0  0  0  0  0  0  0  0  0
  -19.3219   16.9592  -27.0850 H   0  0  0  0  0  0  0  0  0  0  0  0
  -21.7162   17.0731  -29.8221 H   0  0  0  0  0  0  0  0  0  0  0  0
  1 37  1  0  0  0  0
  1  2  1  0  0  0  0
  1  3  2  0  0  0  0
  2 38  1  0  0  0  0
  2  4  2  0  0  0  0
  3  8  1  0  0  0  0
  3 39  1  0  0  0  0
  4 40  1  0  0  0  0
  4  9  1  0  0  0  0
  5  6  2  0  0  0  0
  5 41  1  0  0  0  0
  5  8  1  0  0  0  0
  6 10  1  0  0  0  0
  6 42  1  0  0  0  0
  7  9  1  0  0  0  0
  7 43  1  0  0  0  0
  7 10  2  0  0  0  0
  8  9  2  0  0  0  0
 25 10  1  0  0  0  0
 11 12  2  0  0  0  0
 11 44  1  0  0  0  0
 11 16  1  0  0  0  0
 12 17  1  0  0  0  0
 12 45  1  0  0  0  0
 13 15  2  0  0  0  0
 13 46  1  0  0  0  0
 13 26  1  0  0  0  0
 14 26  2  0  0  0  0
 14 47  1  0  0  0  0
 14 27  1  0  0  0  0
 15 19  1  0  0  0  0
 15 18  1  0  0  0  0
 16 32  2  0  0  0  0
 16 28  1  0  0  0  0
 17 29  1  0  0  0  0
 17 33  2  0  0  0  0
 18 27  1  0  0  0  0
 18 34  2  0  0  0  0
 19 20  2  0  0  0  0
 19 48  1  0  0  0  0
 20 21  1  0  0  0  0
 20 49  1  0  0  0  0
 21 30  1  0  0  0  0
 21 35  2  0  0  0  0
 22 31  1  0  0  0  0
 22 36  2  0  0  0  0
 22 23  1  0  0  0  0
 23 50  1  0  0  0  0
 23 51  1  0  0  0  0
 23 29  1  0  0  0  0
 25 24  1  0  0  0  0
 24 52  1  0  0  0  0
 24 53  1  0  0  0  0
 24 30  1  0  0  0  0
 25 54  1  0  0  0  0
 25 31  1  0  0  0  0
 27 55  1  0  0  0  0
 28 56  1  0  0  0  0
 28 29  1  0  0  0  0
 30 57  1  0  0  0  0
 31 58  1  0  0  0  0
M  ZZC   1 c1
M  ZZC   2 c2
M  ZZC   3 c3
M  ZZC   4 c4
M  ZZC   5 c5
M  ZZC   6 c6
M  ZZC   7 c7
M  ZZC   8 c8
M  ZZC   9 c9
M  ZZC  10 c10
M  ZZC  11 c11
M  ZZC  12 c12
M  ZZC  13 c13
M  ZZC  14 c14
M  ZZC  15 c15
M  ZZC  16 c16
M  ZZC  17 c17
M  ZZC  18 c18
M  ZZC  19 c19
M  ZZC  20 c20
M  ZZC  21 c21
M  ZZC  22 c22
M  ZZC  23 c23
M  ZZC  24 c24
M  ZZC  25 c25
M  ZZC  26 n1
M  ZZC  27 n2
M  ZZC  28 n3
M  ZZC  29 n4
M  ZZC  30 n5
M  ZZC  31 n6
M  ZZC  32 o1
M  ZZC  33 o2
M  ZZC  34 o3
M  ZZC  35 o4
M  ZZC  36 o5
M  ZZC  37 h1
M  ZZC  38 h2
M  ZZC  39 h3
M  ZZC  40 h4
M  ZZC  41 h5
M  ZZC  42 h6
M  ZZC  43 h7
M  ZZC  44 h8
M  ZZC  45 h9
M  ZZC  46 h10
M  ZZC  47 h11
M  ZZC  48 h12
M  ZZC  49 h13
M  ZZC  50 h14
M  ZZC  51 h15
M  ZZC  52 h16
M  ZZC  53 h17
M  ZZC  54 h18
M  ZZC  55 h19
M  ZZC  56 h20
M  ZZC  57 h21
M  ZZC  58 h22
M  ZZM   1 37
M  ZZI   1 125
M  ZZM   2 37
M  ZZI   2 125
M  ZZM   3 37
M  ZZI   3 125
M  ZZM   4 37
M  ZZI   4 125
M  ZZM   5 37
M  ZZI   5 125
M  ZZM   6 37
M  ZZI   6 125
M  ZZM   7 37
M  ZZI   7 125
M  ZZM   8 37
M  ZZI   8 124
M  ZZM   9 37
M  ZZI   9 124
M  ZZM  10 37
M  ZZI  10 124
M  ZZM  11 2
M  ZZI  11 120
M  ZZM  12 2
M  ZZI  12 120
M  ZZM  13 2
M  ZZI  13 120
M  ZZM  14 3
M  ZZI  14 121
M  ZZM  15 2
M  ZZI  15 120
M  ZZM  16 3
M  ZZI  16 121
M  ZZM  17 3
M  ZZI  17 121
M  ZZM  18 3
M  ZZI  18 121
M  ZZM  19 2
M  ZZI  19 120
M  ZZM  20 2
M  ZZI  20 120
M  ZZM  21 3
M  ZZI  21 121
M  ZZM  22 3
M  ZZI  22 121
M  ZZM  23 1
M  ZZI  23 112
M  ZZM  24 1
M  ZZI  24 112
M  ZZM  25 1
M  ZZI  25 113
M  ZZM  26 9
M  ZZI  26 220
M  ZZM  27 10
M  ZZI  27 191
M  ZZM  28 10
M  ZZI  28 191
M  ZZM  29 10
M  ZZI  29 192
M  ZZM  30 10
M  ZZI  30 211
M  ZZM  31 10
M  ZZI  31 211
M  ZZM  32 7
M  ZZI  32 81
M  ZZM  33 7
M  ZZI  33 81
M  ZZM  34 7
M  ZZI  34 81
M  ZZM  35 7
M  ZZI  35 81
M  ZZM  36 7
M  ZZI  36 81
M  ZZM  37 5
M  ZZI  37 1
M  ZZM  38 5
M  ZZI  38 1
M  ZZM  39 5
M  ZZI  39 1
M  ZZM  40 5
M  ZZI  40 1
M  ZZM  41 5
M  ZZI  41 1
M  ZZM  42 5
M  ZZI  42 1
M  ZZM  43 5
M  ZZI  43 1
M  ZZM  44 5
M  ZZI  44 1
M  ZZM  45 5
M  ZZI  45 1
M  ZZM  46 5
M  ZZI  46 1
M  ZZM  47 5
M  ZZI  47 1
M  ZZM  48 5
M  ZZI  48 1
M  ZZM  49 5
M  ZZI  49 1
M  ZZM  50 5
M  ZZI  50 1
M  ZZM  51 5
M  ZZI  51 1
M  ZZM  52 5
M  ZZI  52 1
M  ZZM  53 5
M  ZZI  53 1
M  ZZM  54 5
M  ZZI  54 1
M  ZZM  55 28
M  ZZI  55 11
M  ZZM  56 28
M  ZZI  56 11
M  ZZM  57 28
M  ZZI  57 11
M  ZZM  58 28
M  ZZI  58 11
M  END
> <IX>
77

> <NAME>
61

> <Score>
-28.215414

> <Natom>
58

> <Nflex>
6

> <Hbond>
-5.927703

> <Hphob>
-6.462378

> <VwInt>
-45.201281

> <Dsolv>
24.964273

> <SolEl>
13.424005

> <Eintl>
8.549501

> <RecConf>
ND

> <projPath>
icm/

> <NAME_>
61

$$$$
91
  MOLSOFT 08042117013D

 52 55  0  0  1  0  0  0  0  0999 V2000
  -25.6071   17.7259  -32.0040 C   0  0  0  0  0  0  0  0  0  0  0  0
  -25.0872   18.9704  -31.6739 C   0  0  0  0  0  0  0  0  0  0  0  0
  -24.8635   16.5768  -31.7872 C   0  0  0  0  0  0  0  0  0  0  0  0
  -23.8198   19.0841  -31.1202 C   0  0  0  0  0  0  0  0  0  0  0  0
  -23.6048   16.7003  -31.2230 C   0  0  0  0  0  0  0  0  0  0  0  0
  -23.0892   17.9269  -30.8904 C   0  0  0  0  0  0  0  0  0  0  0  0
  -19.3772   22.1535  -25.7854 C   0  0  0  0  0  0  0  0  0  0  0  0
  -17.9637   23.5126  -24.6796 C   0  0  0  0  0  0  0  0  0  0  0  0
  -18.4529   21.5928  -26.5843 C   0  0  0  0  0  0  0  0  0  0  0  0
  -17.0511   22.0622  -26.3553 C   0  0  0  0  0  0  0  0  0  0  0  0
  -19.4272   14.6626  -23.6775 C   0  0  0  0  0  0  0  0  0  0  0  0
  -20.5630   16.3113  -24.6867 C   0  0  0  0  0  0  0  0  0  0  0  0
  -18.7411   20.6373  -27.6500 C   0  0  0  0  0  0  0  0  0  0  0  0
  -19.9169   20.0223  -27.8877 C   0  0  0  0  0  0  0  0  0  0  0  0
  -20.0717   19.1365  -29.0793 C   0  0  0  0  0  0  0  0  0  0  0  0
  -21.2745   15.1789  -27.8022 C   0  0  0  0  0  0  0  0  0  0  0  0
  -22.6161   15.6129  -30.9715 C   0  0  0  0  0  0  0  0  0  0  0  0
  -20.1514   14.0153  -24.8353 C   0  0  0  0  0  0  0  0  0  0  0  0
  -21.6860   17.7984  -30.3837 C   0  0  2  0  0  0  0  0  0  0  0  0
  -21.6239   16.2950  -30.0199 C   0  0  1  0  0  0  0  0  0  0  0  0
  -21.8739   15.0421  -26.4094 C   0  0  0  0  0  0  0  0  0  0  0  0
  -19.1800   23.0995  -24.8137 N   0  0  0  0  0  0  0  0  0  0  0  0
  -16.9141   23.0429  -25.4142 N   0  0  0  0  0  0  0  0  0  0  0  0
  -19.6877   15.9994  -23.7060 N   0  0  0  0  0  0  0  0  0  0  0  0
  -20.8827   15.1594  -25.3428 N   0  0  0  0  0  0  0  0  0  0  0  0
  -21.3625   18.6915  -29.2739 N   0  0  0  0  0  0  0  0  0  0  0  0
  -21.9996   16.0242  -28.6273 N   0  0  0  0  0  0  0  0  0  0  0  0
  -16.0937   21.5788  -26.9391 O   0  0  0  0  0  0  0  0  0  0  0  0
  -18.7357   14.0801  -22.8557 O   0  0  0  0  0  0  0  0  0  0  0  0
  -20.9926   17.4289  -24.9196 O   0  0  0  0  0  0  0  0  0  0  0  0
  -19.1497   18.8576  -29.8292 O   0  0  0  0  0  0  0  0  0  0  0  0
  -20.2643   14.5796  -28.1444 O   0  0  0  0  0  0  0  0  0  0  0  0
  -26.5950   17.6507  -32.4474 H   0  0  0  0  0  0  0  0  0  0  0  0
  -25.6710   19.8638  -31.8708 H   0  0  0  0  0  0  0  0  0  0  0  0
  -25.2596   15.6082  -32.0717 H   0  0  0  0  0  0  0  0  0  0  0  0
  -23.4069   20.0621  -30.8935 H   0  0  0  0  0  0  0  0  0  0  0  0
  -20.4176   21.8718  -25.8879 H   0  0  0  0  0  0  0  0  0  0  0  0
  -17.6859   24.2841  -23.9426 H   0  0  0  0  0  0  0  0  0  0  0  0
  -17.9115   20.4487  -28.3231 H   0  0  0  0  0  0  0  0  0  0  0  0
  -20.7860   20.1582  -27.2561 H   0  0  0  0  0  0  0  0  0  0  0  0
  -23.0806   14.7193  -30.5390 H   0  0  0  0  0  0  0  0  0  0  0  0
  -22.1386   15.3568  -31.9201 H   0  0  0  0  0  0  0  0  0  0  0  0
  -19.4595   13.6389  -25.5940 H   0  0  0  0  0  0  0  0  0  0  0  0
  -20.8443   13.2540  -24.4821 H   0  0  0  0  0  0  0  0  0  0  0  0
  -21.0102   18.0030  -31.2231 H   0  0  0  0  0  0  0  0  0  0  0  0
  -20.6124   15.9020  -30.1709 H   0  0  0  0  0  0  0  0  0  0  0  0
  -22.6249   15.8249  -26.2574 H   0  0  0  0  0  0  0  0  0  0  0  0
  -22.3724   14.0716  -26.3328 H   0  0  0  0  0  0  0  0  0  0  0  0
  -15.9829   23.3928  -25.2295 H   0  0  0  0  0  0  0  0  0  0  0  0
  -19.3086   16.6668  -23.0483 H   0  0  0  0  0  0  0  0  0  0  0  0
  -22.0952   18.9455  -28.6218 H   0  0  0  0  0  0  0  0  0  0  0  0
  -22.8599   16.4395  -28.2838 H   0  0  0  0  0  0  0  0  0  0  0  0
  1 33  1  0  0  0  0
  1  2  1  0  0  0  0
  1  3  2  0  0  0  0
  2 34  1  0  0  0  0
  2  4  2  0  0  0  0
  3  5  1  0  0  0  0
  3 35  1  0  0  0  0
  4 36  1  0  0  0  0
  4  6  1  0  0  0  0
  5 17  1  0  0  0  0
  5  6  2  0  0  0  0
 19  6  1  0  0  0  0
  7 22  1  0  0  0  0
  7 37  1  0  0  0  0
  7  9  2  0  0  0  0
  8 23  1  0  0  0  0
  8 38  1  0  0  0  0
  8 22  2  0  0  0  0
  9 13  1  0  0  0  0
  9 10  1  0  0  0  0
 10 28  2  0  0  0  0
 10 23  1  0  0  0  0
 11 24  1  0  0  0  0
 11 29  2  0  0  0  0
 11 18  1  0  0  0  0
 12 25  1  0  0  0  0
 12 30  2  0  0  0  0
 12 24  1  0  0  0  0
 13 14  2  0  0  0  0
 13 39  1  0  0  0  0
 14 15  1  0  0  0  0
 14 40  1  0  0  0  0
 15 26  1  0  0  0  0
 15 31  2  0  0  0  0
 16 27  1  0  0  0  0
 16 32  2  0  0  0  0
 16 21  1  0  0  0  0
 20 17  1  0  0  0  0
 17 42  1  0  0  0  0
 17 41  1  0  0  0  0
 18 43  1  0  0  0  0
 18 44  1  0  0  0  0
 18 25  1  0  0  0  0
 19 45  1  0  0  0  0
 19 20  1  0  0  0  0
 19 26  1  0  0  0  0
 20 46  1  0  0  0  0
 20 27  1  0  0  0  0
 21 47  1  0  0  0  0
 21 48  1  0  0  0  0
 21 25  1  0  0  0  0
 23 49  1  0  0  0  0
 24 50  1  0  0  0  0
 26 51  1  0  0  0  0
 27 52  1  0  0  0  0
M  ZZC   1 c1
M  ZZC   2 c2
M  ZZC   3 c3
M  ZZC   4 c4
M  ZZC   5 c5
M  ZZC   6 c6
M  ZZC   7 c7
M  ZZC   8 c8
M  ZZC   9 c9
M  ZZC  10 c10
M  ZZC  11 c11
M  ZZC  12 c12
M  ZZC  13 c13
M  ZZC  14 c14
M  ZZC  15 c15
M  ZZC  16 c16
M  ZZC  17 c17
M  ZZC  18 c18
M  ZZC  19 c19
M  ZZC  20 c20
M  ZZC  21 c21
M  ZZC  22 n1
M  ZZC  23 n2
M  ZZC  24 n3
M  ZZC  25 n4
M  ZZC  26 n5
M  ZZC  27 n6
M  ZZC  28 o1
M  ZZC  29 o2
M  ZZC  30 o3
M  ZZC  31 o4
M  ZZC  32 o5
M  ZZC  33 h1
M  ZZC  34 h2
M  ZZC  35 h3
M  ZZC  36 h4
M  ZZC  37 h5
M  ZZC  38 h6
M  ZZC  39 h7
M  ZZC  40 h8
M  ZZC  41 h9
M  ZZC  42 h10
M  ZZC  43 h11
M  ZZC  44 h12
M  ZZC  45 h13
M  ZZC  46 h14
M  ZZC  47 h15
M  ZZC  48 h16
M  ZZC  49 h17
M  ZZC  50 h18
M  ZZC  51 h19
M  ZZC  52 h20
M  ZZM   1 37
M  ZZI   1 125
M  ZZM   2 37
M  ZZI   2 125
M  ZZM   3 37
M  ZZI   3 125
M  ZZM   4 37
M  ZZI   4 125
M  ZZM   5 37
M  ZZI   5 124
M  ZZM   6 37
M  ZZI   6 124
M  ZZM   7 2
M  ZZI   7 120
M  ZZM   8 3
M  ZZI   8 121
M  ZZM   9 2
M  ZZI   9 120
M  ZZM  10 3
M  ZZI  10 121
M  ZZM  11 3
M  ZZI  11 121
M  ZZM  12 3
M  ZZI  12 121
M  ZZM  13 2
M  ZZI  13 120
M  ZZM  14 2
M  ZZI  14 120
M  ZZM  15 3
M  ZZI  15 121
M  ZZM  16 3
M  ZZI  16 121
M  ZZM  17 1
M  ZZI  17 112
M  ZZM  18 1
M  ZZI  18 112
M  ZZM  19 1
M  ZZI  19 113
M  ZZM  20 1
M  ZZI  20 113
M  ZZM  21 1
M  ZZI  21 112
M  ZZM  22 9
M  ZZI  22 220
M  ZZM  23 10
M  ZZI  23 191
M  ZZM  24 10
M  ZZI  24 191
M  ZZM  25 10
M  ZZI  25 192
M  ZZM  26 10
M  ZZI  26 211
M  ZZM  27 10
M  ZZI  27 211
M  ZZM  28 7
M  ZZI  28 81
M  ZZM  29 7
M  ZZI  29 81
M  ZZM  30 7
M  ZZI  30 81
M  ZZM  31 7
M  ZZI  31 81
M  ZZM  32 7
M  ZZI  32 81
M  ZZM  33 5
M  ZZI  33 1
M  ZZM  34 5
M  ZZI  34 1
M  ZZM  35 5
M  ZZI  35 1
M  ZZM  36 5
M  ZZI  36 1
M  ZZM  37 5
M  ZZI  37 1
M  ZZM  38 5
M  ZZI  38 1
M  ZZM  39 5
M  ZZI  39 1
M  ZZM  40 5
M  ZZI  40 1
M  ZZM  41 5
M  ZZI  41 1
M  ZZM  42 5
M  ZZI  42 1
M  ZZM  43 5
M  ZZI  43 1
M  ZZM  44 5
M  ZZI  44 1
M  ZZM  45 5
M  ZZI  45 1
M  ZZM  46 5
M  ZZI  46 1
M  ZZM  47 5
M  ZZI  47 1
M  ZZM  48 5
M  ZZI  48 1
M  ZZM  49 28
M  ZZI  49 11
M  ZZM  50 28
M  ZZI  50 11
M  ZZM  51 28
M  ZZI  51 11
M  ZZM  52 28
M  ZZI  52 11
M  END
> <IX>
78

> <NAME>
91

> <Score>
-25.062163

> <Natom>
52

> <Nflex>
4

> <Hbond>
-4.781489

> <Hphob>
-5.389788

> <VwInt>
-37.036661

> <Dsolv>
20.961171

> <SolEl>
13.344995

> <Eintl>
1.25708

> <RecConf>
ND

> <projPath>
icm/

> <NAME_>
91

$$$$
5
  MOLSOFT 08042117033D

 53 55  0  0  1  0  0  0  0  0999 V2000
  -25.7954   18.1274  -32.3875 C   0  0  0  0  0  0  0  0  0  0  0  0
  -25.9132   18.8728  -31.2293 C   0  0  0  0  0  0  0  0  0  0  0  0
  -24.7330   17.2558  -32.5384 C   0  0  0  0  0  0  0  0  0  0  0  0
  -24.9773   18.7368  -30.2168 C   0  0  0  0  0  0  0  0  0  0  0  0
  -22.7324   16.2285  -31.6710 C   0  0  0  0  0  0  0  0  0  0  0  0
  -21.8335   16.0359  -30.6418 C   0  0  0  0  0  0  0  0  0  0  0  0
  -23.0074   17.6423  -29.3159 C   0  0  0  0  0  0  0  0  0  0  0  0
  -23.7926   17.1096  -31.5274 C   0  0  0  0  0  0  0  0  0  0  0  0
  -23.9186   17.8419  -30.3501 C   0  0  0  0  0  0  0  0  0  0  0  0
  -21.9662   16.7199  -29.4410 C   0  0  0  0  0  0  0  0  0  0  0  0
  -19.2533   22.2606  -25.6072 C   0  0  0  0  0  0  0  0  0  0  0  0
  -17.8461   23.7422  -24.6670 C   0  0  0  0  0  0  0  0  0  0  0  0
  -18.3182   21.6190  -26.3280 C   0  0  0  0  0  0  0  0  0  0  0  0
  -16.9308   22.1478  -26.2075 C   0  0  0  0  0  0  0  0  0  0  0  0
  -18.6073   20.5133  -27.2260 C   0  0  0  0  0  0  0  0  0  0  0  0
  -19.4936   19.5356  -26.9633 C   0  0  0  0  0  0  0  0  0  0  0  0
  -21.0032   14.6473  -22.7590 C   0  0  0  0  0  0  0  0  0  0  0  0
  -20.5824   14.4561  -24.0210 C   0  0  0  0  0  0  0  0  0  0  0  0
  -19.7567   18.4583  -27.9587 C   0  0  0  0  0  0  0  0  0  0  0  0
  -20.6139   13.6389  -21.7444 C   0  0  0  0  0  0  0  0  0  0  0  0
  -21.1058   15.3451  -25.0846 C   0  0  0  0  0  0  0  0  0  0  0  0
  -21.7909   15.2895  -27.4502 C   0  0  0  0  0  0  0  0  0  0  0  0
  -21.0564   16.3629  -28.2825 C   0  0  2  0  0  0  0  0  0  0  0  0
  -19.0633   23.3185  -24.7583 N   0  0  0  0  0  0  0  0  0  0  0  0
  -16.7937   23.2050  -25.3524 N   0  0  0  0  0  0  0  0  0  0  0  0
  -21.1961   13.8246  -20.5262 N   0  0  0  0  0  0  0  0  0  0  0  0
  -21.0422   14.7539  -26.3265 N   0  0  0  0  0  0  0  0  0  0  0  0
  -20.6650   17.5275  -27.4940 N   0  0  0  0  0  0  0  0  0  0  0  0
  -15.9808   21.6623  -26.8007 O   0  0  0  0  0  0  0  0  0  0  0  0
  -19.2311   18.4285  -29.0624 O   0  0  0  0  0  0  0  0  0  0  0  0
  -19.8674   12.7117  -22.0040 O   0  0  0  0  0  0  0  0  0  0  0  0
  -21.5882   16.4452  -24.8532 O   0  0  0  0  0  0  0  0  0  0  0  0
  -26.5327   18.2274  -33.1777 H   0  0  0  0  0  0  0  0  0  0  0  0
  -26.7459   19.5585  -31.1102 H   0  0  0  0  0  0  0  0  0  0  0  0
  -24.6496   16.6728  -33.4478 H   0  0  0  0  0  0  0  0  0  0  0  0
  -25.0973   19.3195  -29.3083 H   0  0  0  0  0  0  0  0  0  0  0  0
  -22.6058   15.6659  -32.5873 H   0  0  0  0  0  0  0  0  0  0  0  0
  -21.0306   15.3185  -30.7727 H   0  0  0  0  0  0  0  0  0  0  0  0
  -23.1337   18.1842  -28.3830 H   0  0  0  0  0  0  0  0  0  0  0  0
  -20.2882   21.9429  -25.6720 H   0  0  0  0  0  0  0  0  0  0  0  0
  -17.5708   24.5866  -24.0140 H   0  0  0  0  0  0  0  0  0  0  0  0
  -18.0447   20.5007  -28.1551 H   0  0  0  0  0  0  0  0  0  0  0  0
  -20.0506   19.5050  -26.0335 H   0  0  0  0  0  0  0  0  0  0  0  0
  -21.6636   15.4565  -22.4675 H   0  0  0  0  0  0  0  0  0  0  0  0
  -19.9540   13.6196  -24.3097 H   0  0  0  0  0  0  0  0  0  0  0  0
  -22.7345   15.6872  -27.0573 H   0  0  0  0  0  0  0  0  0  0  0  0
  -22.0522   14.4292  -28.0767 H   0  0  0  0  0  0  0  0  0  0  0  0
  -20.1225   15.9407  -28.6745 H   0  0  0  0  0  0  0  0  0  0  0  0
  -15.8680   23.5910  -25.2212 H   0  0  0  0  0  0  0  0  0  0  0  0
  -21.0271   13.1295  -19.8067 H   0  0  0  0  0  0  0  0  0  0  0  0
  -21.8268   14.5883  -20.3138 H   0  0  0  0  0  0  0  0  0  0  0  0
  -20.5923   13.8509  -26.4338 H   0  0  0  0  0  0  0  0  0  0  0  0
  -21.0501   17.6129  -26.5565 H   0  0  0  0  0  0  0  0  0  0  0  0
  1 33  1  0  0  0  0
  1  2  1  0  0  0  0
  1  3  2  0  0  0  0
  2 34  1  0  0  0  0
  2  4  2  0  0  0  0
  3  8  1  0  0  0  0
  3 35  1  0  0  0  0
  4 36  1  0  0  0  0
  4  9  1  0  0  0  0
  5  6  2  0  0  0  0
  5 37  1  0  0  0  0
  5  8  1  0  0  0  0
  6 10  1  0  0  0  0
  6 38  1  0  0  0  0
  7  9  1  0  0  0  0
  7 39  1  0  0  0  0
  7 10  2  0  0  0  0
  8  9  2  0  0  0  0
 23 10  1  0  0  0  0
 11 13  2  0  0  0  0
 11 40  1  0  0  0  0
 11 24  1  0  0  0  0
 12 24  2  0  0  0  0
 12 41  1  0  0  0  0
 12 25  1  0  0  0  0
 13 15  1  0  0  0  0
 13 14  1  0  0  0  0
 14 25  1  0  0  0  0
 14 29  2  0  0  0  0
 15 16  2  0  0  0  0
 15 42  1  0  0  0  0
 16 19  1  0  0  0  0
 16 43  1  0  0  0  0
 17 18  2  0  0  0  0
 17 44  1  0  0  0  0
 17 20  1  0  0  0  0
 18 21  1  0  0  0  0
 18 45  1  0  0  0  0
 19 28  1  0  0  0  0
 19 30  2  0  0  0  0
 20 31  2  0  0  0  0
 20 26  1  0  0  0  0
 21 27  1  0  0  0  0
 21 32  2  0  0  0  0
 23 22  1  0  0  0  0
 22 46  1  0  0  0  0
 22 47  1  0  0  0  0
 22 27  1  0  0  0  0
 23 48  1  0  0  0  0
 23 28  1  0  0  0  0
 25 49  1  0  0  0  0
 26 50  1  0  0  0  0
 26 51  1  0  0  0  0
 27 52  1  0  0  0  0
 28 53  1  0  0  0  0
M  ZZC   1 c1
M  ZZC   2 c2
M  ZZC   3 c3
M  ZZC   4 c4
M  ZZC   5 c5
M  ZZC   6 c6
M  ZZC   7 c7
M  ZZC   8 c8
M  ZZC   9 c9
M  ZZC  10 c10
M  ZZC  11 c11
M  ZZC  12 c12
M  ZZC  13 c13
M  ZZC  14 c14
M  ZZC  15 c15
M  ZZC  16 c16
M  ZZC  17 c17
M  ZZC  18 c18
M  ZZC  19 c19
M  ZZC  20 c20
M  ZZC  21 c21
M  ZZC  22 c22
M  ZZC  23 c23
M  ZZC  24 n1
M  ZZC  25 n2
M  ZZC  26 n3
M  ZZC  27 n4
M  ZZC  28 n5
M  ZZC  29 o1
M  ZZC  30 o2
M  ZZC  31 o3
M  ZZC  32 o4
M  ZZC  33 h1
M  ZZC  34 h2
M  ZZC  35 h3
M  ZZC  36 h4
M  ZZC  37 h5
M  ZZC  38 h6
M  ZZC  39 h7
M  ZZC  40 h8
M  ZZC  41 h9
M  ZZC  42 h10
M  ZZC  43 h11
M  ZZC  44 h12
M  ZZC  45 h13
M  ZZC  46 h14
M  ZZC  47 h15
M  ZZC  48 h16
M  ZZC  49 h17
M  ZZC  50 h18
M  ZZC  51 h19
M  ZZC  52 h20
M  ZZC  53 h21
M  ZZM   1 37
M  ZZI   1 125
M  ZZM   2 37
M  ZZI   2 125
M  ZZM   3 37
M  ZZI   3 125
M  ZZM   4 37
M  ZZI   4 125
M  ZZM   5 37
M  ZZI   5 125
M  ZZM   6 37
M  ZZI   6 125
M  ZZM   7 37
M  ZZI   7 125
M  ZZM   8 37
M  ZZI   8 124
M  ZZM   9 37
M  ZZI   9 124
M  ZZM  10 37
M  ZZI  10 124
M  ZZM  11 2
M  ZZI  11 120
M  ZZM  12 3
M  ZZI  12 121
M  ZZM  13 2
M  ZZI  13 120
M  ZZM  14 3
M  ZZI  14 121
M  ZZM  15 2
M  ZZI  15 120
M  ZZM  16 2
M  ZZI  16 120
M  ZZM  17 2
M  ZZI  17 120
M  ZZM  18 2
M  ZZI  18 120
M  ZZM  19 3
M  ZZI  19 121
M  ZZM  20 3
M  ZZI  20 121
M  ZZM  21 3
M  ZZI  21 121
M  ZZM  22 1
M  ZZI  22 112
M  ZZM  23 1
M  ZZI  23 113
M  ZZM  24 9
M  ZZI  24 220
M  ZZM  25 10
M  ZZI  25 191
M  ZZM  26 10
M  ZZI  26 212
M  ZZM  27 10
M  ZZI  27 211
M  ZZM  28 10
M  ZZI  28 211
M  ZZM  29 7
M  ZZI  29 81
M  ZZM  30 7
M  ZZI  30 81
M  ZZM  31 7
M  ZZI  31 81
M  ZZM  32 7
M  ZZI  32 81
M  ZZM  33 5
M  ZZI  33 1
M  ZZM  34 5
M  ZZI  34 1
M  ZZM  35 5
M  ZZI  35 1
M  ZZM  36 5
M  ZZI  36 1
M  ZZM  37 5
M  ZZI  37 1
M  ZZM  38 5
M  ZZI  38 1
M  ZZM  39 5
M  ZZI  39 1
M  ZZM  40 5
M  ZZI  40 1
M  ZZM  41 5
M  ZZI  41 1
M  ZZM  42 5
M  ZZI  42 1
M  ZZM  43 5
M  ZZI  43 1
M  ZZM  44 5
M  ZZI  44 1
M  ZZM  45 5
M  ZZI  45 1
M  ZZM  46 5
M  ZZI  46 1
M  ZZM  47 5
M  ZZI  47 1
M  ZZM  48 5
M  ZZI  48 1
M  ZZM  49 28
M  ZZI  49 11
M  ZZM  50 28
M  ZZI  50 11
M  ZZM  51 28
M  ZZI  51 11
M  ZZM  52 28
M  ZZI  52 11
M  ZZM  53 28
M  ZZI  53 11
M  END
> <IX>
79

> <NAME>
5

> <Score>
-32.403756

> <Natom>
53

> <Nflex>
4

> <Hbond>
-5.767758

> <Hphob>
-5.828343

> <VwInt>
-41.390593

> <Dsolv>
21.309188

> <SolEl>
10.204851

> <Eintl>
3.945269

> <RecConf>
ND

> <projPath>
icm/

> <NAME_>
5

$$$$
90
  MOLSOFT 08042117043D

 55 58  0  0  1  0  0  0  0  0999 V2000
  -22.0611   12.9540  -29.8224 C   0  0  0  0  0  0  0  0  0  0  0  0
  -22.9949   13.9698  -29.7664 C   0  0  0  0  0  0  0  0  0  0  0  0
  -21.0426   12.8985  -28.8958 C   0  0  0  0  0  0  0  0  0  0  0  0
  -22.9112   14.9289  -28.7726 C   0  0  0  0  0  0  0  0  0  0  0  0
  -19.9615   13.7732  -26.9266 C   0  0  0  0  0  0  0  0  0  0  0  0
  -19.8657   14.7396  -25.9456 C   0  0  0  0  0  0  0  0  0  0  0  0
  -21.7905   15.8455  -26.8316 C   0  0  0  0  0  0  0  0  0  0  0  0
  -20.9644   13.8415  -27.8813 C   0  0  0  0  0  0  0  0  0  0  0  0
  -21.8983   14.8732  -27.8208 C   0  0  0  0  0  0  0  0  0  0  0  0
  -20.7457   15.8142  -25.9072 C   0  0  0  0  0  0  0  0  0  0  0  0
  -17.2140   23.3151  -25.3379 C   0  0  0  0  0  0  0  0  0  0  0  0
  -18.4623   23.4496  -24.8749 C   0  0  0  0  0  0  0  0  0  0  0  0
  -21.8768   19.2492  -19.4592 C   0  0  0  0  0  0  0  0  0  0  0  0
  -21.2968   19.0578  -20.6527 C   0  0  0  0  0  0  0  0  0  0  0  0
  -16.8375   22.2108  -26.2414 C   0  0  0  0  0  0  0  0  0  0  0  0
  -19.5335   22.4907  -25.2201 C   0  0  0  0  0  0  0  0  0  0  0  0
  -20.1664   19.9540  -21.0094 C   0  0  0  0  0  0  0  0  0  0  0  0
  -20.3960   21.0501  -18.8465 C   0  0  0  0  0  0  0  0  0  0  0  0
  -21.8435   18.0024  -21.5567 C   0  0  0  0  0  0  0  0  0  0  0  0
  -19.6624   19.0859  -25.7479 C   0  0  0  0  0  0  0  0  0  0  0  0
  -20.0604   20.3744  -26.4544 C   0  0  0  0  0  0  0  0  0  0  0  0
  -21.3785   16.7204  -23.6274 C   0  0  0  0  0  0  0  0  0  0  0  0
  -20.5243   16.9113  -24.8889 C   0  0  2  0  0  0  0  0  0  0  0  0
  -21.4432   20.2100  -18.5864 N   0  0  0  0  0  0  0  0  0  0  0  0
  -19.8071   20.8746  -20.0629 N   0  0  0  0  0  0  0  0  0  0  0  0
  -17.8544   21.3670  -26.6126 N   0  0  0  0  0  0  0  0  0  0  0  0
  -19.1621   21.4701  -26.0836 N   0  0  0  0  0  0  0  0  0  0  0  0
  -20.9960   17.6614  -22.5866 N   0  0  0  0  0  0  0  0  0  0  0  0
  -20.7203   18.2348  -25.4813 N   0  0  0  0  0  0  0  0  0  0  0  0
  -15.6826   22.0752  -26.6108 O   0  0  0  0  0  0  0  0  0  0  0  0
  -20.6545   22.6359  -24.7534 O   0  0  0  0  0  0  0  0  0  0  0  0
  -19.6018   19.8779  -22.0889 O   0  0  0  0  0  0  0  0  0  0  0  0
  -20.0147   21.8924  -18.0527 O   0  0  0  0  0  0  0  0  0  0  0  0
  -22.9523   17.5144  -21.3860 O   0  0  0  0  0  0  0  0  0  0  0  0
  -18.5009   18.8023  -25.4924 O   0  0  0  0  0  0  0  0  0  0  0  0
  -22.1108   12.1972  -30.5936 H   0  0  0  0  0  0  0  0  0  0  0  0
  -23.7881   14.0192  -30.5042 H   0  0  0  0  0  0  0  0  0  0  0  0
  -20.3065   12.1101  -28.9757 H   0  0  0  0  0  0  0  0  0  0  0  0
  -23.6401   15.7323  -28.7564 H   0  0  0  0  0  0  0  0  0  0  0  0
  -19.2334   12.9701  -26.9445 H   0  0  0  0  0  0  0  0  0  0  0  0
  -19.0736   14.6574  -25.2091 H   0  0  0  0  0  0  0  0  0  0  0  0
  -22.5171   16.6517  -26.8012 H   0  0  0  0  0  0  0  0  0  0  0  0
  -16.4313   24.0099  -25.0619 H   0  0  0  0  0  0  0  0  0  0  0  0
  -18.7315   24.2630  -24.2114 H   0  0  0  0  0  0  0  0  0  0  0  0
  -22.7182   18.6542  -19.1128 H   0  0  0  0  0  0  0  0  0  0  0  0
  -20.0120   20.2159  -27.5372 H   0  0  0  0  0  0  0  0  0  0  0  0
  -21.0894   20.6409  -26.1916 H   0  0  0  0  0  0  0  0  0  0  0  0
  -22.4449   16.8457  -23.8482 H   0  0  0  0  0  0  0  0  0  0  0  0
  -21.2512   15.7145  -23.2120 H   0  0  0  0  0  0  0  0  0  0  0  0
  -19.4750   16.8623  -24.5784 H   0  0  0  0  0  0  0  0  0  0  0  0
  -21.9080   20.3169  -17.6917 H   0  0  0  0  0  0  0  0  0  0  0  0
  -19.0443   21.4969  -20.2931 H   0  0  0  0  0  0  0  0  0  0  0  0
  -17.6388   20.5766  -27.2135 H   0  0  0  0  0  0  0  0  0  0  0  0
  -20.0670   18.0822  -22.6260 H   0  0  0  0  0  0  0  0  0  0  0  0
  -21.6638   18.5205  -25.7185 H   0  0  0  0  0  0  0  0  0  0  0  0
  1 36  1  0  0  0  0
  1  2  1  0  0  0  0
  1  3  2  0  0  0  0
  2 37  1  0  0  0  0
  2  4  2  0  0  0  0
  3  8  1  0  0  0  0
  3 38  1  0  0  0  0
  4 39  1  0  0  0  0
  4  9  1  0  0  0  0
  5  6  2  0  0  0  0
  5 40  1  0  0  0  0
  5  8  1  0  0  0  0
  6 10  1  0  0  0  0
  6 41  1  0  0  0  0
  7  9  1  0  0  0  0
  7 42  1  0  0  0  0
  7 10  2  0  0  0  0
  8  9  2  0  0  0  0
 23 10  1  0  0  0  0
 11 12  2  0  0  0  0
 11 43  1  0  0  0  0
 11 15  1  0  0  0  0
 12 16  1  0  0  0  0
 12 44  1  0  0  0  0
 13 14  2  0  0  0  0
 13 45  1  0  0  0  0
 13 24  1  0  0  0  0
 14 19  1  0  0  0  0
 14 17  1  0  0  0  0
 15 30  2  0  0  0  0
 15 26  1  0  0  0  0
 16 27  1  0  0  0  0
 16 31  2  0  0  0  0
 17 25  1  0  0  0  0
 17 32  2  0  0  0  0
 18 24  1  0  0  0  0
 18 33  2  0  0  0  0
 18 25  1  0  0  0  0
 19 28  1  0  0  0  0
 19 34  2  0  0  0  0
 20 29  1  0  0  0  0
 20 35  2  0  0  0  0
 20 21  1  0  0  0  0
 21 46  1  0  0  0  0
 21 47  1  0  0  0  0
 21 27  1  0  0  0  0
 23 22  1  0  0  0  0
 22 48  1  0  0  0  0
 22 49  1  0  0  0  0
 22 28  1  0  0  0  0
 23 50  1  0  0  0  0
 23 29  1  0  0  0  0
 24 51  1  0  0  0  0
 25 52  1  0  0  0  0
 26 53  1  0  0  0  0
 26 27  1  0  0  0  0
 28 54  1  0  0  0  0
 29 55  1  0  0  0  0
M  ZZC   1 c1
M  ZZC   2 c2
M  ZZC   3 c3
M  ZZC   4 c4
M  ZZC   5 c5
M  ZZC   6 c6
M  ZZC   7 c7
M  ZZC   8 c8
M  ZZC   9 c9
M  ZZC  10 c10
M  ZZC  11 c11
M  ZZC  12 c12
M  ZZC  13 c13
M  ZZC  14 c14
M  ZZC  15 c15
M  ZZC  16 c16
M  ZZC  17 c17
M  ZZC  18 c18
M  ZZC  19 c19
M  ZZC  20 c20
M  ZZC  21 c21
M  ZZC  22 c22
M  ZZC  23 c23
M  ZZC  24 n1
M  ZZC  25 n2
M  ZZC  26 n3
M  ZZC  27 n4
M  ZZC  28 n5
M  ZZC  29 n6
M  ZZC  30 o1
M  ZZC  31 o2
M  ZZC  32 o3
M  ZZC  33 o4
M  ZZC  34 o5
M  ZZC  35 o6
M  ZZC  36 h1
M  ZZC  37 h2
M  ZZC  38 h3
M  ZZC  39 h4
M  ZZC  40 h5
M  ZZC  41 h6
M  ZZC  42 h7
M  ZZC  43 h8
M  ZZC  44 h9
M  ZZC  45 h10
M  ZZC  46 h11
M  ZZC  47 h12
M  ZZC  48 h13
M  ZZC  49 h14
M  ZZC  50 h15
M  ZZC  51 h16
M  ZZC  52 h17
M  ZZC  53 h18
M  ZZC  54 h19
M  ZZC  55 h20
M  ZZM   1 37
M  ZZI   1 125
M  ZZM   2 37
M  ZZI   2 125
M  ZZM   3 37
M  ZZI   3 125
M  ZZM   4 37
M  ZZI   4 125
M  ZZM   5 37
M  ZZI   5 125
M  ZZM   6 37
M  ZZI   6 125
M  ZZM   7 37
M  ZZI   7 125
M  ZZM   8 37
M  ZZI   8 124
M  ZZM   9 37
M  ZZI   9 124
M  ZZM  10 37
M  ZZI  10 124
M  ZZM  11 2
M  ZZI  11 120
M  ZZM  12 2
M  ZZI  12 120
M  ZZM  13 2
M  ZZI  13 120
M  ZZM  14 2
M  ZZI  14 120
M  ZZM  15 3
M  ZZI  15 121
M  ZZM  16 3
M  ZZI  16 121
M  ZZM  17 3
M  ZZI  17 121
M  ZZM  18 3
M  ZZI  18 121
M  ZZM  19 3
M  ZZI  19 121
M  ZZM  20 3
M  ZZI  20 121
M  ZZM  21 1
M  ZZI  21 112
M  ZZM  22 1
M  ZZI  22 112
M  ZZM  23 1
M  ZZI  23 113
M  ZZM  24 10
M  ZZI  24 191
M  ZZM  25 10
M  ZZI  25 191
M  ZZM  26 10
M  ZZI  26 191
M  ZZM  27 10
M  ZZI  27 192
M  ZZM  28 10
M  ZZI  28 211
M  ZZM  29 10
M  ZZI  29 211
M  ZZM  30 7
M  ZZI  30 81
M  ZZM  31 7
M  ZZI  31 81
M  ZZM  32 7
M  ZZI  32 81
M  ZZM  33 7
M  ZZI  33 81
M  ZZM  34 7
M  ZZI  34 81
M  ZZM  35 7
M  ZZI  35 81
M  ZZM  36 5
M  ZZI  36 1
M  ZZM  37 5
M  ZZI  37 1
M  ZZM  38 5
M  ZZI  38 1
M  ZZM  39 5
M  ZZI  39 1
M  ZZM  40 5
M  ZZI  40 1
M  ZZM  41 5
M  ZZI  41 1
M  ZZM  42 5
M  ZZI  42 1
M  ZZM  43 5
M  ZZI  43 1
M  ZZM  44 5
M  ZZI  44 1
M  ZZM  45 5
M  ZZI  45 1
M  ZZM  46 5
M  ZZI  46 1
M  ZZM  47 5
M  ZZI  47 1
M  ZZM  48 5
M  ZZI  48 1
M  ZZM  49 5
M  ZZI  49 1
M  ZZM  50 5
M  ZZI  50 1
M  ZZM  51 28
M  ZZI  51 11
M  ZZM  52 28
M  ZZI  52 11
M  ZZM  53 28
M  ZZI  53 11
M  ZZM  54 28
M  ZZI  54 11
M  ZZM  55 28
M  ZZI  55 11
M  END
> <IX>
80

> <NAME>
90

> <Score>
-35.9291

> <Natom>
55

> <Nflex>
6

> <Hbond>
-5.367402

> <Hphob>
-5.65662

> <VwInt>
-38.582073

> <Dsolv>
16.167182

> <SolEl>
1.821145

> <Eintl>
5.158487

> <RecConf>
ND

> <projPath>
icm/

> <NAME_>
90

$$$$
84
  MOLSOFT 08042117053D

 55 58  0  0  1  0  0  0  0  0999 V2000
  -21.8118   12.3542  -29.5785 C   0  0  0  0  0  0  0  0  0  0  0  0
  -22.7745   12.7560  -28.6682 C   0  0  0  0  0  0  0  0  0  0  0  0
  -20.6883   13.1279  -29.7897 C   0  0  0  0  0  0  0  0  0  0  0  0
  -22.6303   13.9216  -27.9387 C   0  0  0  0  0  0  0  0  0  0  0  0
  -20.5804   14.3173  -29.1042 C   0  0  0  0  0  0  0  0  0  0  0  0
  -21.5172   14.6984  -28.1805 C   0  0  0  0  0  0  0  0  0  0  0  0
  -16.8450   21.9160  -27.0064 C   0  0  0  0  0  0  0  0  0  0  0  0
  -21.7587   15.9017  -21.9457 C   0  0  0  0  0  0  0  0  0  0  0  0
  -16.0623   23.2772  -25.4177 C   0  0  0  0  0  0  0  0  0  0  0  0
  -18.1049   21.9044  -26.5440 C   0  0  0  0  0  0  0  0  0  0  0  0
  -20.8724   15.1755  -22.6447 C   0  0  0  0  0  0  0  0  0  0  0  0
  -18.4050   22.7870  -25.3848 C   0  0  0  0  0  0  0  0  0  0  0  0
  -20.5412   13.8380  -22.0961 C   0  0  0  0  0  0  0  0  0  0  0  0
  -22.1481   14.3277  -20.3799 C   0  0  0  0  0  0  0  0  0  0  0  0
  -19.1324   21.0509  -27.0977 C   0  0  0  0  0  0  0  0  0  0  0  0
  -18.8447   19.8161  -27.5381 C   0  0  0  0  0  0  0  0  0  0  0  0
  -19.9004   18.8828  -27.9775 C   0  0  0  0  0  0  0  0  0  0  0  0
  -21.1272   15.7805  -25.0769 C   0  0  0  0  0  0  0  0  0  0  0  0
  -19.5181   15.3454  -29.2415 C   0  0  0  0  0  0  0  0  0  0  0  0
  -21.1645   16.0084  -27.5614 C   0  0  2  0  0  0  0  0  0  0  0  0
  -20.2642   16.5609  -28.6915 C   0  0  1  0  0  0  0  0  0  0  0  0
  -22.8334   13.7614  -19.1657 C   0  0  0  0  0  0  0  0  0  0  0  0
  -20.1776   15.6542  -23.8933 C   0  0  0  0  0  0  0  0  0  0  0  0
  -15.7765   22.5537  -26.4492 N   0  0  0  0  0  0  0  0  0  0  0  0
  -22.4287   15.5138  -20.8162 N   0  0  0  0  0  0  0  0  0  0  0  0
  -17.3102   23.4271  -24.8824 N   0  0  0  0  0  0  0  0  0  0  0  0
  -21.2394   13.4954  -20.9797 N   0  0  0  0  0  0  0  0  0  0  0  0
  -19.3815   17.6510  -28.3136 N   0  0  0  0  0  0  0  0  0  0  0  0
  -20.4674   15.8150  -26.2904 N   0  0  0  0  0  0  0  0  0  0  0  0
  -19.5275   22.9176  -24.9206 O   0  0  0  0  0  0  0  0  0  0  0  0
  -19.7025   13.1057  -22.5929 O   0  0  0  0  0  0  0  0  0  0  0  0
  -21.0827   19.1904  -28.0063 O   0  0  0  0  0  0  0  0  0  0  0  0
  -22.3404   15.8834  -24.9595 O   0  0  0  0  0  0  0  0  0  0  0  0
  -21.9395   11.4257  -30.1186 H   0  0  0  0  0  0  0  0  0  0  0  0
  -23.6467   12.1398  -28.5192 H   0  0  0  0  0  0  0  0  0  0  0  0
  -19.9254   12.8209  -30.4886 H   0  0  0  0  0  0  0  0  0  0  0  0
  -23.3754   14.2306  -27.2153 H   0  0  0  0  0  0  0  0  0  0  0  0
  -16.5846   21.3272  -27.8786 H   0  0  0  0  0  0  0  0  0  0  0  0
  -22.0165   16.8975  -22.2927 H   0  0  0  0  0  0  0  0  0  0  0  0
  -15.2865   23.8300  -24.8773 H   0  0  0  0  0  0  0  0  0  0  0  0
  -20.1563   21.4119  -27.0667 H   0  0  0  0  0  0  0  0  0  0  0  0
  -17.8328   19.4378  -27.5344 H   0  0  0  0  0  0  0  0  0  0  0  0
  -18.6402   15.0688  -28.6494 H   0  0  0  0  0  0  0  0  0  0  0  0
  -19.2193   15.5020  -30.2784 H   0  0  0  0  0  0  0  0  0  0  0  0
  -22.0514   16.6345  -27.4082 H   0  0  0  0  0  0  0  0  0  0  0  0
  -20.9126   16.9512  -29.4892 H   0  0  0  0  0  0  0  0  0  0  0  0
  -23.6202   13.0740  -19.4914 H   0  0  0  0  0  0  0  0  0  0  0  0
  -23.2801   14.5638  -18.5712 H   0  0  0  0  0  0  0  0  0  0  0  0
  -22.1191   13.2060  -18.5499 H   0  0  0  0  0  0  0  0  0  0  0  0
  -19.3518   14.9880  -24.1636 H   0  0  0  0  0  0  0  0  0  0  0  0
  -19.7335   16.6393  -23.7163 H   0  0  0  0  0  0  0  0  0  0  0  0
  -17.4338   24.0203  -24.0705 H   0  0  0  0  0  0  0  0  0  0  0  0
  -21.0392   12.5851  -20.5854 H   0  0  0  0  0  0  0  0  0  0  0  0
  -18.3758   17.5046  -28.3594 H   0  0  0  0  0  0  0  0  0  0  0  0
  -19.4717   15.6310  -26.3157 H   0  0  0  0  0  0  0  0  0  0  0  0
  1 34  1  0  0  0  0
  1  2  1  0  0  0  0
  1  3  2  0  0  0  0
  2 35  1  0  0  0  0
  2  4  2  0  0  0  0
  3  5  1  0  0  0  0
  3 36  1  0  0  0  0
  4 37  1  0  0  0  0
  4  6  1  0  0  0  0
  5 19  1  0  0  0  0
  5  6  2  0  0  0  0
 20  6  1  0  0  0  0
  7 24  1  0  0  0  0
  7 38  1  0  0  0  0
  7 10  2  0  0  0  0
  8 25  1  0  0  0  0
  8 39  1  0  0  0  0
  8 11  2  0  0  0  0
  9 26  1  0  0  0  0
  9 40  1  0  0  0  0
  9 24  2  0  0  0  0
 10 15  1  0  0  0  0
 10 12  1  0  0  0  0
 11 23  1  0  0  0  0
 11 13  1  0  0  0  0
 12 30  2  0  0  0  0
 12 26  1  0  0  0  0
 13 31  2  0  0  0  0
 13 27  1  0  0  0  0
 14 27  1  0  0  0  0
 14 22  1  0  0  0  0
 14 25  2  0  0  0  0
 15 16  2  0  0  0  0
 15 41  1  0  0  0  0
 16 17  1  0  0  0  0
 16 42  1  0  0  0  0
 17 28  1  0  0  0  0
 17 32  2  0  0  0  0
 18 29  1  0  0  0  0
 18 33  2  0  0  0  0
 18 23  1  0  0  0  0
 21 19  1  0  0  0  0
 19 43  1  0  0  0  0
 19 44  1  0  0  0  0
 20 45  1  0  0  0  0
 20 29  1  0  0  0  0
 20 21  1  0  0  0  0
 21 46  1  0  0  0  0
 21 28  1  0  0  0  0
 22 47  1  0  0  0  0
 22 48  1  0  0  0  0
 22 49  1  0  0  0  0
 23 50  1  0  0  0  0
 23 51  1  0  0  0  0
 26 52  1  0  0  0  0
 27 53  1  0  0  0  0
 28 54  1  0  0  0  0
 29 55  1  0  0  0  0
M  ZZC   1 c1
M  ZZC   2 c2
M  ZZC   3 c3
M  ZZC   4 c4
M  ZZC   5 c5
M  ZZC   6 c6
M  ZZC   7 c7
M  ZZC   8 c8
M  ZZC   9 c9
M  ZZC  10 c10
M  ZZC  11 c11
M  ZZC  12 c12
M  ZZC  13 c13
M  ZZC  14 c14
M  ZZC  15 c15
M  ZZC  16 c16
M  ZZC  17 c17
M  ZZC  18 c18
M  ZZC  19 c19
M  ZZC  20 c20
M  ZZC  21 c21
M  ZZC  22 c22
M  ZZC  23 c23
M  ZZC  24 n1
M  ZZC  25 n2
M  ZZC  26 n3
M  ZZC  27 n4
M  ZZC  28 n5
M  ZZC  29 n6
M  ZZC  30 o1
M  ZZC  31 o2
M  ZZC  32 o3
M  ZZC  33 o4
M  ZZC  34 h1
M  ZZC  35 h2
M  ZZC  36 h3
M  ZZC  37 h4
M  ZZC  38 h5
M  ZZC  39 h6
M  ZZC  40 h7
M  ZZC  41 h8
M  ZZC  42 h9
M  ZZC  43 h10
M  ZZC  44 h11
M  ZZC  45 h12
M  ZZC  46 h13
M  ZZC  47 h14
M  ZZC  48 h15
M  ZZC  49 h16
M  ZZC  50 h17
M  ZZC  51 h18
M  ZZC  52 h19
M  ZZC  53 h20
M  ZZC  54 h21
M  ZZC  55 h22
M  ZZM   1 37
M  ZZI   1 125
M  ZZM   2 37
M  ZZI   2 125
M  ZZM   3 37
M  ZZI   3 125
M  ZZM   4 37
M  ZZI   4 125
M  ZZM   5 37
M  ZZI   5 124
M  ZZM   6 37
M  ZZI   6 124
M  ZZM   7 2
M  ZZI   7 120
M  ZZM   8 2
M  ZZI   8 120
M  ZZM   9 3
M  ZZI   9 121
M  ZZM  10 2
M  ZZI  10 120
M  ZZM  11 2
M  ZZI  11 120
M  ZZM  12 3
M  ZZI  12 121
M  ZZM  13 3
M  ZZI  13 121
M  ZZM  14 3
M  ZZI  14 121
M  ZZM  15 2
M  ZZI  15 120
M  ZZM  16 2
M  ZZI  16 120
M  ZZM  17 3
M  ZZI  17 121
M  ZZM  18 3
M  ZZI  18 121
M  ZZM  19 1
M  ZZI  19 112
M  ZZM  20 1
M  ZZI  20 113
M  ZZM  21 1
M  ZZI  21 113
M  ZZM  22 1
M  ZZI  22 111
M  ZZM  23 1
M  ZZI  23 112
M  ZZM  24 9
M  ZZI  24 220
M  ZZM  25 9
M  ZZI  25 220
M  ZZM  26 10
M  ZZI  26 191
M  ZZM  27 10
M  ZZI  27 191
M  ZZM  28 10
M  ZZI  28 211
M  ZZM  29 10
M  ZZI  29 211
M  ZZM  30 7
M  ZZI  30 81
M  ZZM  31 7
M  ZZI  31 81
M  ZZM  32 7
M  ZZI  32 81
M  ZZM  33 7
M  ZZI  33 81
M  ZZM  34 5
M  ZZI  34 1
M  ZZM  35 5
M  ZZI  35 1
M  ZZM  36 5
M  ZZI  36 1
M  ZZM  37 5
M  ZZI  37 1
M  ZZM  38 5
M  ZZI  38 1
M  ZZM  39 5
M  ZZI  39 1
M  ZZM  40 5
M  ZZI  40 1
M  ZZM  41 5
M  ZZI  41 1
M  ZZM  42 5
M  ZZI  42 1
M  ZZM  43 5
M  ZZI  43 1
M  ZZM  44 5
M  ZZI  44 1
M  ZZM  45 5
M  ZZI  45 1
M  ZZM  46 5
M  ZZI  46 1
M  ZZM  47 5
M  ZZI  47 1
M  ZZM  48 5
M  ZZI  48 1
M  ZZM  49 5
M  ZZI  49 1
M  ZZM  50 5
M  ZZI  50 1
M  ZZM  51 5
M  ZZI  51 1
M  ZZM  52 28
M  ZZI  52 11
M  ZZM  53 28
M  ZZI  53 11
M  ZZM  54 28
M  ZZI  54 11
M  ZZM  55 28
M  ZZI  55 11
M  END
> <IX>
81

> <NAME>
84

> <Score>
-36.16807

> <Natom>
55

> <Nflex>
4

> <Hbond>
-7.844858

> <Hphob>
-5.888463

> <VwInt>
-39.242175

> <Dsolv>
18.648436

> <SolEl>
5.437738

> <Eintl>
11.486054

> <RecConf>
ND

> <projPath>
icm/

> <NAME_>
84

$$$$
94
  MOLSOFT 08042117073D

 53 56  0  0  1  0  0  0  0  0999 V2000
  -24.1299   17.2254  -32.0276 C   0  0  0  0  0  0  0  0  0  0  0  0
  -23.2378   18.2661  -31.8180 C   0  0  0  0  0  0  0  0  0  0  0  0
  -23.9146   15.9965  -31.4293 C   0  0  0  0  0  0  0  0  0  0  0  0
  -22.1248   18.0860  -31.0108 C   0  0  0  0  0  0  0  0  0  0  0  0
  -22.8115   15.8296  -30.6089 C   0  0  0  0  0  0  0  0  0  0  0  0
  -21.9276   16.8547  -30.3961 C   0  0  0  0  0  0  0  0  0  0  0  0
  -19.4166   21.8977  -25.7966 C   0  0  0  0  0  0  0  0  0  0  0  0
  -22.0318   15.5277  -22.3215 C   0  0  0  0  0  0  0  0  0  0  0  0
  -18.1691   23.4171  -24.6986 C   0  0  0  0  0  0  0  0  0  0  0  0
  -22.2260   14.6268  -20.2669 C   0  0  0  0  0  0  0  0  0  0  0  0
  -18.4067   21.3816  -26.5167 C   0  0  0  0  0  0  0  0  0  0  0  0
  -21.2128   14.5776  -22.8033 C   0  0  0  0  0  0  0  0  0  0  0  0
  -17.0653   21.9930  -26.2810 C   0  0  0  0  0  0  0  0  0  0  0  0
  -20.7842   13.5366  -21.8327 C   0  0  0  0  0  0  0  0  0  0  0  0
  -18.5824   20.3742  -27.5504 C   0  0  0  0  0  0  0  0  0  0  0  0
  -20.7109   14.5237  -24.1637 C   0  0  0  0  0  0  0  0  0  0  0  0
  -19.4445   19.3402  -27.5086 C   0  0  0  0  0  0  0  0  0  0  0  0
  -21.4295   14.8651  -25.2473 C   0  0  0  0  0  0  0  0  0  0  0  0
  -19.5775   18.4368  -28.6900 C   0  0  0  0  0  0  0  0  0  0  0  0
  -20.8231   14.7137  -26.5948 C   0  0  0  0  0  0  0  0  0  0  0  0
  -22.3878   14.5749  -29.9272 C   0  0  0  0  0  0  0  0  0  0  0  0
  -20.7728   16.4276  -29.5405 C   0  0  2  0  0  0  0  0  0  0  0  0
  -21.2491   15.0481  -29.0136 C   0  0  1  0  0  0  0  0  0  0  0  0
  -19.3411   22.8974  -24.8628 N   0  0  0  0  0  0  0  0  0  0  0  0
  -22.5636   15.5912  -21.0600 N   0  0  0  0  0  0  0  0  0  0  0  0
  -17.0505   23.0137  -25.3719 N   0  0  0  0  0  0  0  0  0  0  0  0
  -21.3750   13.6131  -20.6077 N   0  0  0  0  0  0  0  0  0  0  0  0
  -20.4552   17.3924  -28.4885 N   0  0  0  0  0  0  0  0  0  0  0  0
  -21.6813   15.0775  -27.6128 N   0  0  0  0  0  0  0  0  0  0  0  0
  -16.0573   21.5939  -26.8431 O   0  0  0  0  0  0  0  0  0  0  0  0
  -19.9725   12.6754  -22.1283 O   0  0  0  0  0  0  0  0  0  0  0  0
  -18.9876   18.6283  -29.7415 O   0  0  0  0  0  0  0  0  0  0  0  0
  -19.6804   14.3136  -26.7589 O   0  0  0  0  0  0  0  0  0  0  0  0
  -24.9975   17.3678  -32.6651 H   0  0  0  0  0  0  0  0  0  0  0  0
  -23.4059   19.2254  -32.2964 H   0  0  0  0  0  0  0  0  0  0  0  0
  -24.6006   15.1810  -31.6143 H   0  0  0  0  0  0  0  0  0  0  0  0
  -21.4190   18.8990  -30.8776 H   0  0  0  0  0  0  0  0  0  0  0  0
  -20.4256   21.5300  -25.9507 H   0  0  0  0  0  0  0  0  0  0  0  0
  -22.3509   16.3400  -22.9661 H   0  0  0  0  0  0  0  0  0  0  0  0
  -17.9891   24.2374  -23.9840 H   0  0  0  0  0  0  0  0  0  0  0  0
  -22.6075   14.5619  -19.2346 H   0  0  0  0  0  0  0  0  0  0  0  0
  -17.9530   20.5140  -28.4220 H   0  0  0  0  0  0  0  0  0  0  0  0
  -19.6983   14.1441  -24.2761 H   0  0  0  0  0  0  0  0  0  0  0  0
  -20.0804   19.1511  -26.6517 H   0  0  0  0  0  0  0  0  0  0  0  0
  -22.4522   15.2183  -25.1833 H   0  0  0  0  0  0  0  0  0  0  0  0
  -23.2127   14.1130  -29.3731 H   0  0  0  0  0  0  0  0  0  0  0  0
  -22.0230   13.8623  -30.6725 H   0  0  0  0  0  0  0  0  0  0  0  0
  -19.8985   16.2970  -30.1882 H   0  0  0  0  0  0  0  0  0  0  0  0
  -20.4231   14.3293  -29.0710 H   0  0  0  0  0  0  0  0  0  0  0  0
  -16.1638   23.4613  -25.1767 H   0  0  0  0  0  0  0  0  0  0  0  0
  -21.1363   12.8932  -19.9357 H   0  0  0  0  0  0  0  0  0  0  0  0
  -20.9414   17.3030  -27.6052 H   0  0  0  0  0  0  0  0  0  0  0  0
  -22.6165   15.4058  -27.3943 H   0  0  0  0  0  0  0  0  0  0  0  0
  1 34  1  0  0  0  0
  1  2  1  0  0  0  0
  1  3  2  0  0  0  0
  2 35  1  0  0  0  0
  2  4  2  0  0  0  0
  3  5  1  0  0  0  0
  3 36  1  0  0  0  0
  4 37  1  0  0  0  0
  4  6  1  0  0  0  0
  5 21  1  0  0  0  0
  5  6  2  0  0  0  0
 22  6  1  0  0  0  0
  7 24  1  0  0  0  0
  7 38  1  0  0  0  0
  7 11  2  0  0  0  0
  8 25  1  0  0  0  0
  8 39  1  0  0  0  0
  8 12  2  0  0  0  0
  9 26  1  0  0  0  0
  9 40  1  0  0  0  0
  9 24  2  0  0  0  0
 10 27  1  0  0  0  0
 10 41  1  0  0  0  0
 10 25  2  0  0  0  0
 11 15  1  0  0  0  0
 11 13  1  0  0  0  0
 12 16  1  0  0  0  0
 12 14  1  0  0  0  0
 13 30  2  0  0  0  0
 13 26  1  0  0  0  0
 14 31  2  0  0  0  0
 14 27  1  0  0  0  0
 15 17  2  0  0  0  0
 15 42  1  0  0  0  0
 16 18  2  0  0  0  0
 16 43  1  0  0  0  0
 17 19  1  0  0  0  0
 17 44  1  0  0  0  0
 18 20  1  0  0  0  0
 18 45  1  0  0  0  0
 19 28  1  0  0  0  0
 19 32  2  0  0  0  0
 20 29  1  0  0  0  0
 20 33  2  0  0  0  0
 23 21  1  0  0  0  0
 21 46  1  0  0  0  0
 21 47  1  0  0  0  0
 22 48  1  0  0  0  0
 22 28  1  0  0  0  0
 22 23  1  0  0  0  0
 23 49  1  0  0  0  0
 23 29  1  0  0  0  0
 26 50  1  0  0  0  0
 27 51  1  0  0  0  0
 28 52  1  0  0  0  0
 29 53  1  0  0  0  0
M  ZZC   1 c1
M  ZZC   2 c2
M  ZZC   3 c3
M  ZZC   4 c4
M  ZZC   5 c5
M  ZZC   6 c6
M  ZZC   7 c7
M  ZZC   8 c8
M  ZZC   9 c9
M  ZZC  10 c10
M  ZZC  11 c11
M  ZZC  12 c12
M  ZZC  13 c13
M  ZZC  14 c14
M  ZZC  15 c15
M  ZZC  16 c16
M  ZZC  17 c17
M  ZZC  18 c18
M  ZZC  19 c19
M  ZZC  20 c20
M  ZZC  21 c21
M  ZZC  22 c22
M  ZZC  23 c23
M  ZZC  24 n1
M  ZZC  25 n2
M  ZZC  26 n3
M  ZZC  27 n4
M  ZZC  28 n5
M  ZZC  29 n6
M  ZZC  30 o1
M  ZZC  31 o2
M  ZZC  32 o3
M  ZZC  33 o4
M  ZZC  34 h1
M  ZZC  35 h2
M  ZZC  36 h3
M  ZZC  37 h4
M  ZZC  38 h5
M  ZZC  39 h6
M  ZZC  40 h7
M  ZZC  41 h8
M  ZZC  42 h9
M  ZZC  43 h10
M  ZZC  44 h11
M  ZZC  45 h12
M  ZZC  46 h13
M  ZZC  47 h14
M  ZZC  48 h15
M  ZZC  49 h16
M  ZZC  50 h17
M  ZZC  51 h18
M  ZZC  52 h19
M  ZZC  53 h20
M  ZZM   1 37
M  ZZI   1 125
M  ZZM   2 37
M  ZZI   2 125
M  ZZM   3 37
M  ZZI   3 125
M  ZZM   4 37
M  ZZI   4 125
M  ZZM   5 37
M  ZZI   5 124
M  ZZM   6 37
M  ZZI   6 124
M  ZZM   7 2
M  ZZI   7 120
M  ZZM   8 2
M  ZZI   8 120
M  ZZM   9 3
M  ZZI   9 121
M  ZZM  10 3
M  ZZI  10 121
M  ZZM  11 2
M  ZZI  11 120
M  ZZM  12 2
M  ZZI  12 120
M  ZZM  13 3
M  ZZI  13 121
M  ZZM  14 3
M  ZZI  14 121
M  ZZM  15 2
M  ZZI  15 120
M  ZZM  16 2
M  ZZI  16 120
M  ZZM  17 2
M  ZZI  17 120
M  ZZM  18 2
M  ZZI  18 120
M  ZZM  19 3
M  ZZI  19 121
M  ZZM  20 3
M  ZZI  20 121
M  ZZM  21 1
M  ZZI  21 112
M  ZZM  22 1
M  ZZI  22 113
M  ZZM  23 1
M  ZZI  23 113
M  ZZM  24 9
M  ZZI  24 220
M  ZZM  25 9
M  ZZI  25 220
M  ZZM  26 10
M  ZZI  26 191
M  ZZM  27 10
M  ZZI  27 191
M  ZZM  28 10
M  ZZI  28 211
M  ZZM  29 10
M  ZZI  29 211
M  ZZM  30 7
M  ZZI  30 81
M  ZZM  31 7
M  ZZI  31 81
M  ZZM  32 7
M  ZZI  32 81
M  ZZM  33 7
M  ZZI  33 81
M  ZZM  34 5
M  ZZI  34 1
M  ZZM  35 5
M  ZZI  35 1
M  ZZM  36 5
M  ZZI  36 1
M  ZZM  37 5
M  ZZI  37 1
M  ZZM  38 5
M  ZZI  38 1
M  ZZM  39 5
M  ZZI  39 1
M  ZZM  40 5
M  ZZI  40 1
M  ZZM  41 5
M  ZZI  41 1
M  ZZM  42 5
M  ZZI  42 1
M  ZZM  43 5
M  ZZI  43 1
M  ZZM  44 5
M  ZZI  44 1
M  ZZM  45 5
M  ZZI  45 1
M  ZZM  46 5
M  ZZI  46 1
M  ZZM  47 5
M  ZZI  47 1
M  ZZM  48 5
M  ZZI  48 1
M  ZZM  49 5
M  ZZI  49 1
M  ZZM  50 28
M  ZZI  50 11
M  ZZM  51 28
M  ZZI  51 11
M  ZZM  52 28
M  ZZI  52 11
M  ZZM  53 28
M  ZZI  53 11
M  END
> <IX>
82

> <NAME>
94

> <Score>
-31.675398

> <Natom>
53

> <Nflex>
2

> <Hbond>
-6.168755

> <Hphob>
-5.72585

> <VwInt>
-42.798356

> <Dsolv>
23.093301

> <SolEl>
15.135487

> <Eintl>
3.428052

> <RecConf>
ND

> <projPath>
icm/

> <NAME_>
94

$$$$
77
  MOLSOFT 08042117083D

 58 61  0  0  1  0  0  0  0  0999 V2000
  -23.1670   13.7614  -18.3232 C   0  0  0  0  0  0  0  0  0  0  0  0
  -24.0348   14.6925  -18.8609 C   0  0  0  0  0  0  0  0  0  0  0  0
  -21.9902   13.4558  -18.9805 C   0  0  0  0  0  0  0  0  0  0  0  0
  -23.7302   15.3098  -20.0611 C   0  0  0  0  0  0  0  0  0  0  0  0
  -20.4853   13.7822  -20.8510 C   0  0  0  0  0  0  0  0  0  0  0  0
  -20.1999   14.3648  -22.0729 C   0  0  0  0  0  0  0  0  0  0  0  0
  -22.2552   15.5813  -21.9580 C   0  0  0  0  0  0  0  0  0  0  0  0
  -21.6697   14.0729  -20.1847 C   0  0  0  0  0  0  0  0  0  0  0  0
  -22.5519   14.9982  -20.7332 C   0  0  0  0  0  0  0  0  0  0  0  0
  -21.1085   15.2378  -22.6689 C   0  0  0  0  0  0  0  0  0  0  0  0
  -21.6256   13.3952  -29.2750 C   0  0  0  0  0  0  0  0  0  0  0  0
  -21.0809   15.7611  -29.2351 C   0  0  0  0  0  0  0  0  0  0  0  0
  -17.1478   21.0384  -26.7204 C   0  0  0  0  0  0  0  0  0  0  0  0
  -16.4277   22.9926  -25.8844 C   0  0  0  0  0  0  0  0  0  0  0  0
  -21.0166   14.4305  -28.6807 C   0  0  0  0  0  0  0  0  0  0  0  0
  -18.2581   20.9797  -25.9690 C   0  0  0  0  0  0  0  0  0  0  0  0
  -21.8214   15.9884  -30.3264 C   0  0  0  0  0  0  0  0  0  0  0  0
  -22.4294   13.6412  -30.4856 C   0  0  0  0  0  0  0  0  0  0  0  0
  -18.5200   22.1462  -25.0760 C   0  0  0  0  0  0  0  0  0  0  0  0
  -19.1349   19.8260  -26.0206 C   0  0  0  0  0  0  0  0  0  0  0  0
  -19.6329   19.2160  -24.9309 C   0  0  0  0  0  0  0  0  0  0  0  0
  -20.3501   14.0994  -27.3895 C   0  0  0  0  0  0  0  0  0  0  0  0
  -20.4203   17.9733  -25.1105 C   0  0  0  0  0  0  0  0  0  0  0  0
  -21.9622   17.3341  -30.9688 C   0  0  0  0  0  0  0  0  0  0  0  0
  -20.2311   14.7930  -25.0189 C   0  0  0  0  0  0  0  0  0  0  0  0
  -20.9293   15.7877  -24.0675 C   0  0  2  0  0  0  0  0  0  0  0  0
  -16.1846   22.0106  -26.6903 N   0  0  0  0  0  0  0  0  0  0  0  0
  -17.5379   23.0941  -25.0934 N   0  0  0  0  0  0  0  0  0  0  0  0
  -22.4874   14.9456  -30.9219 N   0  0  0  0  0  0  0  0  0  0  0  0
  -20.5808   15.0334  -26.4066 N   0  0  0  0  0  0  0  0  0  0  0  0
  -20.2753   17.0927  -24.0578 N   0  0  0  0  0  0  0  0  0  0  0  0
  -22.9844   12.7060  -31.0337 O   0  0  0  0  0  0  0  0  0  0  0  0
  -19.5241   22.2463  -24.3877 O   0  0  0  0  0  0  0  0  0  0  0  0
  -19.7398   13.0532  -27.2309 O   0  0  0  0  0  0  0  0  0  0  0  0
  -21.0894   17.7666  -26.1135 O   0  0  0  0  0  0  0  0  0  0  0  0
  -23.4053   13.2716  -17.3844 H   0  0  0  0  0  0  0  0  0  0  0  0
  -24.9583   14.9347  -18.3446 H   0  0  0  0  0  0  0  0  0  0  0  0
  -21.3218   12.7223  -18.5432 H   0  0  0  0  0  0  0  0  0  0  0  0
  -24.4308   16.0307  -20.4722 H   0  0  0  0  0  0  0  0  0  0  0  0
  -19.7767   13.0795  -20.4251 H   0  0  0  0  0  0  0  0  0  0  0  0
  -19.2703   14.1002  -22.5684 H   0  0  0  0  0  0  0  0  0  0  0  0
  -22.9521   16.2922  -22.3911 H   0  0  0  0  0  0  0  0  0  0  0  0
  -21.6069   12.3799  -28.8993 H   0  0  0  0  0  0  0  0  0  0  0  0
  -20.5212   16.5620  -28.7629 H   0  0  0  0  0  0  0  0  0  0  0  0
  -16.9242   20.2215  -27.3981 H   0  0  0  0  0  0  0  0  0  0  0  0
  -15.7315   23.8340  -25.7698 H   0  0  0  0  0  0  0  0  0  0  0  0
  -19.3012   19.3953  -27.0049 H   0  0  0  0  0  0  0  0  0  0  0  0
  -19.4461   19.5596  -23.9196 H   0  0  0  0  0  0  0  0  0  0  0  0
  -21.3370   18.0865  -30.4779 H   0  0  0  0  0  0  0  0  0  0  0  0
  -23.0009   17.6748  -30.9182 H   0  0  0  0  0  0  0  0  0  0  0  0
  -21.6685   17.2935  -32.0223 H   0  0  0  0  0  0  0  0  0  0  0  0
  -19.1415   14.8501  -24.9360 H   0  0  0  0  0  0  0  0  0  0  0  0
  -20.5221   13.7600  -24.7971 H   0  0  0  0  0  0  0  0  0  0  0  0
  -21.9367   15.9503  -24.4712 H   0  0  0  0  0  0  0  0  0  0  0  0
  -17.6476   23.8944  -24.4822 H   0  0  0  0  0  0  0  0  0  0  0  0
  -23.0188   15.1243  -31.7667 H   0  0  0  0  0  0  0  0  0  0  0  0
  -21.0572   15.9036  -26.6355 H   0  0  0  0  0  0  0  0  0  0  0  0
  -19.6383   17.3159  -23.2977 H   0  0  0  0  0  0  0  0  0  0  0  0
  1 36  1  0  0  0  0
  1  2  1  0  0  0  0
  1  3  2  0  0  0  0
  2 37  1  0  0  0  0
  2  4  2  0  0  0  0
  3  8  1  0  0  0  0
  3 38  1  0  0  0  0
  4 39  1  0  0  0  0
  4  9  1  0  0  0  0
  5  6  2  0  0  0  0
  5 40  1  0  0  0  0
  5  8  1  0  0  0  0
  6 10  1  0  0  0  0
  6 41  1  0  0  0  0
  7  9  1  0  0  0  0
  7 42  1  0  0  0  0
  7 10  2  0  0  0  0
  8  9  2  0  0  0  0
 26 10  1  0  0  0  0
 11 15  2  0  0  0  0
 11 43  1  0  0  0  0
 11 18  1  0  0  0  0
 12 17  2  0  0  0  0
 12 44  1  0  0  0  0
 12 15  1  0  0  0  0
 13 16  2  0  0  0  0
 13 45  1  0  0  0  0
 13 27  1  0  0  0  0
 14 27  2  0  0  0  0
 14 46  1  0  0  0  0
 14 28  1  0  0  0  0
 15 22  1  0  0  0  0
 16 20  1  0  0  0  0
 16 19  1  0  0  0  0
 17 29  1  0  0  0  0
 17 24  1  0  0  0  0
 18 32  2  0  0  0  0
 18 29  1  0  0  0  0
 19 28  1  0  0  0  0
 19 33  2  0  0  0  0
 20 21  2  0  0  0  0
 20 47  1  0  0  0  0
 21 23  1  0  0  0  0
 21 48  1  0  0  0  0
 22 30  1  0  0  0  0
 22 34  2  0  0  0  0
 23 31  1  0  0  0  0
 23 35  2  0  0  0  0
 24 49  1  0  0  0  0
 24 50  1  0  0  0  0
 24 51  1  0  0  0  0
 26 25  1  0  0  0  0
 25 52  1  0  0  0  0
 25 53  1  0  0  0  0
 25 30  1  0  0  0  0
 26 54  1  0  0  0  0
 26 31  1  0  0  0  0
 28 55  1  0  0  0  0
 29 56  1  0  0  0  0
 30 57  1  0  0  0  0
 31 58  1  0  0  0  0
M  ZZC   1 c1
M  ZZC   2 c2
M  ZZC   3 c3
M  ZZC   4 c4
M  ZZC   5 c5
M  ZZC   6 c6
M  ZZC   7 c7
M  ZZC   8 c8
M  ZZC   9 c9
M  ZZC  10 c10
M  ZZC  11 c11
M  ZZC  12 c12
M  ZZC  13 c13
M  ZZC  14 c14
M  ZZC  15 c15
M  ZZC  16 c16
M  ZZC  17 c17
M  ZZC  18 c18
M  ZZC  19 c19
M  ZZC  20 c20
M  ZZC  21 c21
M  ZZC  22 c22
M  ZZC  23 c23
M  ZZC  24 c24
M  ZZC  25 c25
M  ZZC  26 c26
M  ZZC  27 n1
M  ZZC  28 n2
M  ZZC  29 n3
M  ZZC  30 n4
M  ZZC  31 n5
M  ZZC  32 o1
M  ZZC  33 o2
M  ZZC  34 o3
M  ZZC  35 o4
M  ZZC  36 h1
M  ZZC  37 h2
M  ZZC  38 h3
M  ZZC  39 h4
M  ZZC  40 h5
M  ZZC  41 h6
M  ZZC  42 h7
M  ZZC  43 h8
M  ZZC  44 h9
M  ZZC  45 h10
M  ZZC  46 h11
M  ZZC  47 h12
M  ZZC  48 h13
M  ZZC  49 h14
M  ZZC  50 h15
M  ZZC  51 h16
M  ZZC  52 h17
M  ZZC  53 h18
M  ZZC  54 h19
M  ZZC  55 h20
M  ZZC  56 h21
M  ZZC  57 h22
M  ZZC  58 h23
M  ZZM   1 37
M  ZZI   1 125
M  ZZM   2 37
M  ZZI   2 125
M  ZZM   3 37
M  ZZI   3 125
M  ZZM   4 37
M  ZZI   4 125
M  ZZM   5 37
M  ZZI   5 125
M  ZZM   6 37
M  ZZI   6 125
M  ZZM   7 37
M  ZZI   7 125
M  ZZM   8 37
M  ZZI   8 124
M  ZZM   9 37
M  ZZI   9 124
M  ZZM  10 37
M  ZZI  10 124
M  ZZM  11 2
M  ZZI  11 120
M  ZZM  12 2
M  ZZI  12 120
M  ZZM  13 2
M  ZZI  13 120
M  ZZM  14 3
M  ZZI  14 121
M  ZZM  15 2
M  ZZI  15 120
M  ZZM  16 2
M  ZZI  16 120
M  ZZM  17 2
M  ZZI  17 120
M  ZZM  18 3
M  ZZI  18 121
M  ZZM  19 3
M  ZZI  19 121
M  ZZM  20 2
M  ZZI  20 120
M  ZZM  21 2
M  ZZI  21 120
M  ZZM  22 3
M  ZZI  22 121
M  ZZM  23 3
M  ZZI  23 121
M  ZZM  24 1
M  ZZI  24 111
M  ZZM  25 1
M  ZZI  25 112
M  ZZM  26 1
M  ZZI  26 113
M  ZZM  27 9
M  ZZI  27 220
M  ZZM  28 10
M  ZZI  28 191
M  ZZM  29 10
M  ZZI  29 191
M  ZZM  30 10
M  ZZI  30 211
M  ZZM  31 10
M  ZZI  31 211
M  ZZM  32 7
M  ZZI  32 81
M  ZZM  33 7
M  ZZI  33 81
M  ZZM  34 7
M  ZZI  34 81
M  ZZM  35 7
M  ZZI  35 81
M  ZZM  36 5
M  ZZI  36 1
M  ZZM  37 5
M  ZZI  37 1
M  ZZM  38 5
M  ZZI  38 1
M  ZZM  39 5
M  ZZI  39 1
M  ZZM  40 5
M  ZZI  40 1
M  ZZM  41 5
M  ZZI  41 1
M  ZZM  42 5
M  ZZI  42 1
M  ZZM  43 5
M  ZZI  43 1
M  ZZM  44 5
M  ZZI  44 1
M  ZZM  45 5
M  ZZI  45 1
M  ZZM  46 5
M  ZZI  46 1
M  ZZM  47 5
M  ZZI  47 1
M  ZZM  48 5
M  ZZI  48 1
M  ZZM  49 5
M  ZZI  49 1
M  ZZM  50 5
M  ZZI  50 1
M  ZZM  51 5
M  ZZI  51 1
M  ZZM  52 5
M  ZZI  52 1
M  ZZM  53 5
M  ZZI  53 1
M  ZZM  54 5
M  ZZI  54 1
M  ZZM  55 28
M  ZZI  55 11
M  ZZM  56 28
M  ZZI  56 11
M  ZZM  57 28
M  ZZI  57 11
M  ZZM  58 28
M  ZZI  58 11
M  END
> <IX>
83

> <NAME>
77

> <Score>
-33.932546

> <Natom>
58

> <Nflex>
4

> <Hbond>
-5.410602

> <Hphob>
-6.449515

> <VwInt>
-45.269645

> <Dsolv>
19.355728

> <SolEl>
13.237181

> <Eintl>
6.156271

> <RecConf>
ND

> <projPath>
icm/

> <NAME_>
77

$$$$
74
  MOLSOFT 08042117103D

 58 61  0  0  1  0  0  0  0  0999 V2000
  -21.0832   12.9591  -29.1240 C   0  0  0  0  0  0  0  0  0  0  0  0
  -19.9829   13.7258  -29.4820 C   0  0  0  0  0  0  0  0  0  0  0  0
  -21.8574   13.3195  -28.0329 C   0  0  0  0  0  0  0  0  0  0  0  0
  -19.6596   14.8738  -28.7799 C   0  0  0  0  0  0  0  0  0  0  0  0
  -21.5100   14.4565  -27.3238 C   0  0  0  0  0  0  0  0  0  0  0  0
  -20.4508   15.2334  -27.6999 C   0  0  0  0  0  0  0  0  0  0  0  0
  -17.9501   23.7781  -24.4899 C   0  0  0  0  0  0  0  0  0  0  0  0
  -22.7929   15.6616  -20.3421 C   0  0  0  0  0  0  0  0  0  0  0  0
  -22.4877   13.5447  -19.6622 C   0  0  0  0  0  0  0  0  0  0  0  0
  -19.0183   22.9923  -24.7023 C   0  0  0  0  0  0  0  0  0  0  0  0
  -21.7929   15.6441  -21.2364 C   0  0  0  0  0  0  0  0  0  0  0  0
  -20.3429   23.6000  -24.3633 C   0  0  0  0  0  0  0  0  0  0  0  0
  -21.0162   14.3859  -21.3615 C   0  0  0  0  0  0  0  0  0  0  0  0
  -19.1015   25.5419  -23.6849 C   0  0  0  0  0  0  0  0  0  0  0  0
  -18.8598   21.6516  -25.2443 C   0  0  0  0  0  0  0  0  0  0  0  0
  -19.8419   20.7718  -25.5027 C   0  0  0  0  0  0  0  0  0  0  0  0
  -19.4773   19.4418  -26.0410 C   0  0  0  0  0  0  0  0  0  0  0  0
  -22.0482   16.6562  -23.4553 C   0  0  0  0  0  0  0  0  0  0  0  0
  -22.1711   14.9706  -26.0968 C   0  0  0  0  0  0  0  0  0  0  0  0
  -20.2970   16.4348  -26.8223 C   0  0  2  0  0  0  0  0  0  0  0  0
  -21.5169   16.3415  -25.8772 C   0  0  2  0  0  0  0  0  0  0  0  0
  -19.2346   26.9387  -23.1450 C   0  0  0  0  0  0  0  0  0  0  0  0
  -21.4117   16.8199  -22.0881 C   0  0  0  0  0  0  0  0  0  0  0  0
  -20.2661   17.7266  -27.6531 C   0  0  0  0  0  0  0  0  0  0  0  0
  -23.1816   14.6275  -19.5348 N   0  0  0  0  0  0  0  0  0  0  0  0
  -17.9461   25.0526  -23.9929 N   0  0  0  0  0  0  0  0  0  0  0  0
  -21.4386   13.3961  -20.5278 N   0  0  0  0  0  0  0  0  0  0  0  0
  -20.2756   24.8588  -23.8459 N   0  0  0  0  0  0  0  0  0  0  0  0
  -20.4454   18.9401  -26.8801 N   0  0  0  0  0  0  0  0  0  0  0  0
  -21.1289   16.5406  -24.4819 N   0  0  0  0  0  0  0  0  0  0  0  0
  -21.4145   23.0497  -24.5685 O   0  0  0  0  0  0  0  0  0  0  0  0
  -20.0844   14.2510  -22.1395 O   0  0  0  0  0  0  0  0  0  0  0  0
  -18.4250   18.8899  -25.7594 O   0  0  0  0  0  0  0  0  0  0  0  0
  -23.2617   16.6124  -23.6087 O   0  0  0  0  0  0  0  0  0  0  0  0
  -21.3316   12.0701  -29.6949 H   0  0  0  0  0  0  0  0  0  0  0  0
  -19.3705   13.4339  -30.3243 H   0  0  0  0  0  0  0  0  0  0  0  0
  -22.7160   12.7235  -27.7414 H   0  0  0  0  0  0  0  0  0  0  0  0
  -18.8044   15.4734  -29.0772 H   0  0  0  0  0  0  0  0  0  0  0  0
  -16.9553   23.4098  -24.7227 H   0  0  0  0  0  0  0  0  0  0  0  0
  -23.3828   16.5648  -20.2206 H   0  0  0  0  0  0  0  0  0  0  0  0
  -22.7029   12.6466  -19.0610 H   0  0  0  0  0  0  0  0  0  0  0  0
  -17.8360   21.3551  -25.4569 H   0  0  0  0  0  0  0  0  0  0  0  0
  -20.8941   20.9728  -25.3480 H   0  0  0  0  0  0  0  0  0  0  0  0
  -23.2491   15.0814  -26.2548 H   0  0  0  0  0  0  0  0  0  0  0  0
  -21.9887   14.2843  -25.2627 H   0  0  0  0  0  0  0  0  0  0  0  0
  -19.3675   16.3325  -26.2556 H   0  0  0  0  0  0  0  0  0  0  0  0
  -22.2598   17.1149  -26.1089 H   0  0  0  0  0  0  0  0  0  0  0  0
  -19.5665   27.6003  -23.9509 H   0  0  0  0  0  0  0  0  0  0  0  0
  -18.2719   27.2894  -22.7610 H   0  0  0  0  0  0  0  0  0  0  0  0
  -19.9774   26.9652  -22.3420 H   0  0  0  0  0  0  0  0  0  0  0  0
  -20.3226   16.9130  -22.1576 H   0  0  0  0  0  0  0  0  0  0  0  0
  -21.7759   17.7588  -21.6579 H   0  0  0  0  0  0  0  0  0  0  0  0
  -19.3137   17.8100  -28.1892 H   0  0  0  0  0  0  0  0  0  0  0  0
  -21.0582   17.7228  -28.4100 H   0  0  0  0  0  0  0  0  0  0  0  0
  -20.9388   12.5181  -20.5620 H   0  0  0  0  0  0  0  0  0  0  0  0
  -21.1593   25.3131  -23.6549 H   0  0  0  0  0  0  0  0  0  0  0  0
  -21.2874   19.4820  -27.0424 H   0  0  0  0  0  0  0  0  0  0  0  0
  -20.1394   16.5650  -24.2510 H   0  0  0  0  0  0  0  0  0  0  0  0
  1 35  1  0  0  0  0
  1  2  1  0  0  0  0
  1  3  2  0  0  0  0
  2 36  1  0  0  0  0
  2  4  2  0  0  0  0
  3  5  1  0  0  0  0
  3 37  1  0  0  0  0
  4 38  1  0  0  0  0
  4  6  1  0  0  0  0
  5 19  1  0  0  0  0
  5  6  2  0  0  0  0
 20  6  1  0  0  0  0
  7 26  1  0  0  0  0
  7 39  1  0  0  0  0
  7 10  2  0  0  0  0
  8 25  1  0  0  0  0
  8 40  1  0  0  0  0
  8 11  2  0  0  0  0
  9 27  1  0  0  0  0
  9 41  1  0  0  0  0
  9 25  2  0  0  0  0
 10 15  1  0  0  0  0
 10 12  1  0  0  0  0
 11 23  1  0  0  0  0
 11 13  1  0  0  0  0
 12 31  2  0  0  0  0
 12 28  1  0  0  0  0
 13 32  2  0  0  0  0
 13 27  1  0  0  0  0
 14 28  1  0  0  0  0
 14 22  1  0  0  0  0
 14 26  2  0  0  0  0
 15 16  2  0  0  0  0
 15 42  1  0  0  0  0
 16 17  1  0  0  0  0
 16 43  1  0  0  0  0
 17 29  1  0  0  0  0
 17 33  2  0  0  0  0
 18 30  1  0  0  0  0
 18 34  2  0  0  0  0
 18 23  1  0  0  0  0
 21 19  1  0  0  0  0
 19 44  1  0  0  0  0
 19 45  1  0  0  0  0
 20 46  1  0  0  0  0
 20 21  1  0  0  0  0
 20 24  1  0  0  0  0
 21 47  1  0  0  0  0
 21 30  1  0  0  0  0
 22 48  1  0  0  0  0
 22 49  1  0  0  0  0
 22 50  1  0  0  0  0
 23 51  1  0  0  0  0
 23 52  1  0  0  0  0
 24 53  1  0  0  0  0
 24 54  1  0  0  0  0
 24 29  1  0  0  0  0
 27 55  1  0  0  0  0
 28 56  1  0  0  0  0
 29 57  1  0  0  0  0
 30 58  1  0  0  0  0
M  ZZC   1 c1
M  ZZC   2 c2
M  ZZC   3 c3
M  ZZC   4 c4
M  ZZC   5 c5
M  ZZC   6 c6
M  ZZC   7 c7
M  ZZC   8 c8
M  ZZC   9 c9
M  ZZC  10 c10
M  ZZC  11 c11
M  ZZC  12 c12
M  ZZC  13 c13
M  ZZC  14 c14
M  ZZC  15 c15
M  ZZC  16 c16
M  ZZC  17 c17
M  ZZC  18 c18
M  ZZC  19 c19
M  ZZC  20 c20
M  ZZC  21 c21
M  ZZC  22 c22
M  ZZC  23 c23
M  ZZC  24 c24
M  ZZC  25 n1
M  ZZC  26 n2
M  ZZC  27 n3
M  ZZC  28 n4
M  ZZC  29 n5
M  ZZC  30 n6
M  ZZC  31 o1
M  ZZC  32 o2
M  ZZC  33 o3
M  ZZC  34 o4
M  ZZC  35 h1
M  ZZC  36 h2
M  ZZC  37 h3
M  ZZC  38 h4
M  ZZC  39 h5
M  ZZC  40 h6
M  ZZC  41 h7
M  ZZC  42 h8
M  ZZC  43 h9
M  ZZC  44 h10
M  ZZC  45 h11
M  ZZC  46 h12
M  ZZC  47 h13
M  ZZC  48 h14
M  ZZC  49 h15
M  ZZC  50 h16
M  ZZC  51 h17
M  ZZC  52 h18
M  ZZC  53 h19
M  ZZC  54 h20
M  ZZC  55 h21
M  ZZC  56 h22
M  ZZC  57 h23
M  ZZC  58 h24
M  ZZM   1 37
M  ZZI   1 125
M  ZZM   2 37
M  ZZI   2 125
M  ZZM   3 37
M  ZZI   3 125
M  ZZM   4 37
M  ZZI   4 125
M  ZZM   5 37
M  ZZI   5 124
M  ZZM   6 37
M  ZZI   6 124
M  ZZM   7 2
M  ZZI   7 120
M  ZZM   8 2
M  ZZI   8 120
M  ZZM   9 3
M  ZZI   9 121
M  ZZM  10 2
M  ZZI  10 120
M  ZZM  11 2
M  ZZI  11 120
M  ZZM  12 3
M  ZZI  12 121
M  ZZM  13 3
M  ZZI  13 121
M  ZZM  14 3
M  ZZI  14 121
M  ZZM  15 2
M  ZZI  15 120
M  ZZM  16 2
M  ZZI  16 120
M  ZZM  17 3
M  ZZI  17 121
M  ZZM  18 3
M  ZZI  18 121
M  ZZM  19 1
M  ZZI  19 112
M  ZZM  20 1
M  ZZI  20 113
M  ZZM  21 1
M  ZZI  21 113
M  ZZM  22 1
M  ZZI  22 111
M  ZZM  23 1
M  ZZI  23 112
M  ZZM  24 1
M  ZZI  24 112
M  ZZM  25 9
M  ZZI  25 220
M  ZZM  26 9
M  ZZI  26 220
M  ZZM  27 10
M  ZZI  27 191
M  ZZM  28 10
M  ZZI  28 191
M  ZZM  29 10
M  ZZI  29 211
M  ZZM  30 10
M  ZZI  30 211
M  ZZM  31 7
M  ZZI  31 81
M  ZZM  32 7
M  ZZI  32 81
M  ZZM  33 7
M  ZZI  33 81
M  ZZM  34 7
M  ZZI  34 81
M  ZZM  35 5
M  ZZI  35 1
M  ZZM  36 5
M  ZZI  36 1
M  ZZM  37 5
M  ZZI  37 1
M  ZZM  38 5
M  ZZI  38 1
M  ZZM  39 5
M  ZZI  39 1
M  ZZM  40 5
M  ZZI  40 1
M  ZZM  41 5
M  ZZI  41 1
M  ZZM  42 5
M  ZZI  42 1
M  ZZM  43 5
M  ZZI  43 1
M  ZZM  44 5
M  ZZI  44 1
M  ZZM  45 5
M  ZZI  45 1
M  ZZM  46 5
M  ZZI  46 1
M  ZZM  47 5
M  ZZI  47 1
M  ZZM  48 5
M  ZZI  48 1
M  ZZM  49 5
M  ZZI  49 1
M  ZZM  50 5
M  ZZI  50 1
M  ZZM  51 5
M  ZZI  51 1
M  ZZM  52 5
M  ZZI  52 1
M  ZZM  53 5
M  ZZI  53 1
M  ZZM  54 5
M  ZZI  54 1
M  ZZM  55 28
M  ZZI  55 11
M  ZZM  56 28
M  ZZI  56 11
M  ZZM  57 28
M  ZZI  57 11
M  ZZM  58 28
M  ZZI  58 11
M  END
> <IX>
84

> <NAME>
74

> <Score>
-27.747881

> <Natom>
58

> <Nflex>
5

> <Hbond>
-4.961787

> <Hphob>
-6.151017

> <VwInt>
-35.625078

> <Dsolv>
19.642828

> <SolEl>
5.169083

> <Eintl>
5.679972

> <RecConf>
ND

> <projPath>
icm/

> <NAME_>
74

$$$$
79
  MOLSOFT 08042117113D

 58 61  0  0  1  0  0  0  0  0999 V2000
  -25.3525   17.7251  -32.4233 C   0  0  0  0  0  0  0  0  0  0  0  0
  -25.6400   18.6258  -31.4159 C   0  0  0  0  0  0  0  0  0  0  0  0
  -24.2869   16.8530  -32.2879 C   0  0  0  0  0  0  0  0  0  0  0  0
  -24.8698   18.6499  -30.2655 C   0  0  0  0  0  0  0  0  0  0  0  0
  -22.4726   15.9606  -30.9609 C   0  0  0  0  0  0  0  0  0  0  0  0
  -21.7333   15.9449  -29.7905 C   0  0  0  0  0  0  0  0  0  0  0  0
  -23.0688   17.7310  -28.9283 C   0  0  0  0  0  0  0  0  0  0  0  0
  -23.5222   16.8535  -31.1257 C   0  0  0  0  0  0  0  0  0  0  0  0
  -23.8159   17.7537  -30.1035 C   0  0  0  0  0  0  0  0  0  0  0  0
  -22.0212   16.8254  -28.7513 C   0  0  0  0  0  0  0  0  0  0  0  0
  -19.0612   22.7784  -25.5889 C   0  0  0  0  0  0  0  0  0  0  0  0
  -17.5681   24.1383  -24.6146 C   0  0  0  0  0  0  0  0  0  0  0  0
  -18.1612   22.0213  -26.2395 C   0  0  0  0  0  0  0  0  0  0  0  0
  -20.8440   15.0973  -22.1987 C   0  0  0  0  0  0  0  0  0  0  0  0
  -21.3284   14.2702  -21.2728 C   0  0  0  0  0  0  0  0  0  0  0  0
  -16.7401   22.4318  -26.0866 C   0  0  0  0  0  0  0  0  0  0  0  0
  -19.6631   14.3894  -22.7697 C   0  0  0  0  0  0  0  0  0  0  0  0
  -18.5079   20.8675  -27.0528 C   0  0  0  0  0  0  0  0  0  0  0  0
  -19.5318   20.0476  -26.7585 C   0  0  0  0  0  0  0  0  0  0  0  0
  -19.8393   18.8411  -27.5715 C   0  0  0  0  0  0  0  0  0  0  0  0
  -22.1053   16.3494  -23.8931 C   0  0  0  0  0  0  0  0  0  0  0  0
  -22.5055   14.4475  -20.3691 C   0  0  0  0  0  0  0  0  0  0  0  0
  -21.2429   16.4652  -22.6538 C   0  0  0  0  0  0  0  0  0  0  0  0
  -22.0200   16.0119  -26.3686 C   0  0  0  0  0  0  0  0  0  0  0  0
  -21.2274   16.7670  -27.4584 C   0  0  2  0  0  0  0  0  0  0  0  0
  -18.8154   23.8457  -24.7699 N   0  0  0  0  0  0  0  0  0  0  0  0
  -16.5437   23.4792  -25.2326 N   0  0  0  0  0  0  0  0  0  0  0  0
  -20.5859   13.1426  -21.2229 N   0  0  0  0  0  0  0  0  0  0  0  0
  -20.8380   18.0902  -26.9864 N   0  0  0  0  0  0  0  0  0  0  0  0
  -21.3906   16.1011  -25.0543 N   0  0  0  0  0  0  0  0  0  0  0  0
  -15.8164   21.8687  -26.6527 O   0  0  0  0  0  0  0  0  0  0  0  0
  -18.9468   14.8259  -23.6596 O   0  0  0  0  0  0  0  0  0  0  0  0
  -19.2578   18.5648  -28.6104 O   0  0  0  0  0  0  0  0  0  0  0  0
  -23.3203   16.4690  -23.8303 O   0  0  0  0  0  0  0  0  0  0  0  0
  -19.5473   13.1782  -22.1342 O   0  0  0  0  0  0  0  0  0  0  0  0
  -25.9645   17.7026  -33.3188 H   0  0  0  0  0  0  0  0  0  0  0  0
  -26.4740   19.3116  -31.5258 H   0  0  0  0  0  0  0  0  0  0  0  0
  -24.0637   16.1634  -33.0957 H   0  0  0  0  0  0  0  0  0  0  0  0
  -25.1172   19.3605  -29.4825 H   0  0  0  0  0  0  0  0  0  0  0  0
  -22.2246   15.2619  -31.7520 H   0  0  0  0  0  0  0  0  0  0  0  0
  -20.9202   15.2308  -29.6959 H   0  0  0  0  0  0  0  0  0  0  0  0
  -23.3159   18.4233  -28.1285 H   0  0  0  0  0  0  0  0  0  0  0  0
  -20.1147   22.5446  -25.6708 H   0  0  0  0  0  0  0  0  0  0  0  0
  -17.2426   24.9634  -23.9610 H   0  0  0  0  0  0  0  0  0  0  0  0
  -17.8701   20.6640  -27.9088 H   0  0  0  0  0  0  0  0  0  0  0  0
  -20.1525   20.2175  -25.8867 H   0  0  0  0  0  0  0  0  0  0  0  0
  -22.2027   14.3665  -19.3216 H   0  0  0  0  0  0  0  0  0  0  0  0
  -23.2516   13.6718  -20.5663 H   0  0  0  0  0  0  0  0  0  0  0  0
  -22.9855   15.4199  -20.5090 H   0  0  0  0  0  0  0  0  0  0  0  0
  -20.3605   17.0772  -22.8692 H   0  0  0  0  0  0  0  0  0  0  0  0
  -21.8083   16.9908  -21.8779 H   0  0  0  0  0  0  0  0  0  0  0  0
  -23.0428   16.3965  -26.2886 H   0  0  0  0  0  0  0  0  0  0  0  0
  -22.1015   14.9486  -26.6196 H   0  0  0  0  0  0  0  0  0  0  0  0
  -20.2864   16.2338  -27.6416 H   0  0  0  0  0  0  0  0  0  0  0  0
  -15.5939   23.7754  -25.0571 H   0  0  0  0  0  0  0  0  0  0  0  0
  -20.6358   12.4360  -20.4888 H   0  0  0  0  0  0  0  0  0  0  0  0
  -21.2851   18.4248  -26.1405 H   0  0  0  0  0  0  0  0  0  0  0  0
  -20.3951   15.8979  -24.9828 H   0  0  0  0  0  0  0  0  0  0  0  0
  1  3  2  0  0  0  0
  1 36  1  0  0  0  0
  1  2  1  0  0  0  0
  2 37  1  0  0  0  0
  2  4  2  0  0  0  0
  3  8  1  0  0  0  0
  3 38  1  0  0  0  0
  4 39  1  0  0  0  0
  4  9  1  0  0  0  0
  5  6  2  0  0  0  0
  5 40  1  0  0  0  0
  5  8  1  0  0  0  0
  6 10  1  0  0  0  0
  6 41  1  0  0  0  0
  7  9  1  0  0  0  0
  7 42  1  0  0  0  0
  7 10  2  0  0  0  0
  8  9  2  0  0  0  0
 25 10  1  0  0  0  0
 11 13  2  0  0  0  0
 11 43  1  0  0  0  0
 11 26  1  0  0  0  0
 12 26  2  0  0  0  0
 12 44  1  0  0  0  0
 12 27  1  0  0  0  0
 13 18  1  0  0  0  0
 13 16  1  0  0  0  0
 14 17  1  0  0  0  0
 14 15  2  0  0  0  0
 14 23  1  0  0  0  0
 15 22  1  0  0  0  0
 15 28  1  0  0  0  0
 16 27  1  0  0  0  0
 16 31  2  0  0  0  0
 17 32  2  0  0  0  0
 17 35  1  0  0  0  0
 18 19  2  0  0  0  0
 18 45  1  0  0  0  0
 19 20  1  0  0  0  0
 19 46  1  0  0  0  0
 20 29  1  0  0  0  0
 20 33  2  0  0  0  0
 21 23  1  0  0  0  0
 21 34  2  0  0  0  0
 21 30  1  0  0  0  0
 22 47  1  0  0  0  0
 22 48  1  0  0  0  0
 22 49  1  0  0  0  0
 23 50  1  0  0  0  0
 23 51  1  0  0  0  0
 24 30  1  0  0  0  0
 24 52  1  0  0  0  0
 24 53  1  0  0  0  0
 25 24  1  0  0  0  0
 25 54  1  0  0  0  0
 25 29  1  0  0  0  0
 27 55  1  0  0  0  0
 28 56  1  0  0  0  0
 28 35  1  0  0  0  0
 29 57  1  0  0  0  0
 30 58  1  0  0  0  0
M  ZZC   1 c1
M  ZZC   2 c2
M  ZZC   3 c3
M  ZZC   4 c4
M  ZZC   5 c5
M  ZZC   6 c6
M  ZZC   7 c7
M  ZZC   8 c8
M  ZZC   9 c9
M  ZZC  10 c10
M  ZZC  11 c11
M  ZZC  12 c12
M  ZZC  13 c13
M  ZZC  14 c14
M  ZZC  15 c15
M  ZZC  16 c16
M  ZZC  17 c17
M  ZZC  18 c18
M  ZZC  19 c19
M  ZZC  20 c20
M  ZZC  21 c21
M  ZZC  22 c22
M  ZZC  23 c23
M  ZZC  24 c24
M  ZZC  25 c25
M  ZZC  26 n1
M  ZZC  27 n2
M  ZZC  28 n3
M  ZZC  29 n4
M  ZZC  30 n5
M  ZZC  31 o1
M  ZZC  32 o2
M  ZZC  33 o3
M  ZZC  34 o4
M  ZZC  35 o5
M  ZZC  36 h1
M  ZZC  37 h2
M  ZZC  38 h3
M  ZZC  39 h4
M  ZZC  40 h5
M  ZZC  41 h6
M  ZZC  42 h7
M  ZZC  43 h8
M  ZZC  44 h9
M  ZZC  45 h10
M  ZZC  46 h11
M  ZZC  47 h12
M  ZZC  48 h13
M  ZZC  49 h14
M  ZZC  50 h15
M  ZZC  51 h16
M  ZZC  52 h17
M  ZZC  53 h18
M  ZZC  54 h19
M  ZZC  55 h20
M  ZZC  56 h21
M  ZZC  57 h22
M  ZZC  58 h23
M  ZZM   1 37
M  ZZI   1 125
M  ZZM   2 37
M  ZZI   2 125
M  ZZM   3 37
M  ZZI   3 125
M  ZZM   4 37
M  ZZI   4 125
M  ZZM   5 37
M  ZZI   5 125
M  ZZM   6 37
M  ZZI   6 125
M  ZZM   7 37
M  ZZI   7 125
M  ZZM   8 37
M  ZZI   8 124
M  ZZM   9 37
M  ZZI   9 124
M  ZZM  10 37
M  ZZI  10 124
M  ZZM  11 2
M  ZZI  11 120
M  ZZM  12 3
M  ZZI  12 121
M  ZZM  13 2
M  ZZI  13 120
M  ZZM  14 2
M  ZZI  14 120
M  ZZM  15 2
M  ZZI  15 120
M  ZZM  16 3
M  ZZI  16 121
M  ZZM  17 3
M  ZZI  17 123
M  ZZM  18 2
M  ZZI  18 120
M  ZZM  19 2
M  ZZI  19 120
M  ZZM  20 3
M  ZZI  20 121
M  ZZM  21 3
M  ZZI  21 121
M  ZZM  22 1
M  ZZI  22 111
M  ZZM  23 1
M  ZZI  23 112
M  ZZM  24 1
M  ZZI  24 112
M  ZZM  25 1
M  ZZI  25 113
M  ZZM  26 9
M  ZZI  26 220
M  ZZM  27 10
M  ZZI  27 191
M  ZZM  28 40
M  ZZI  28 194
M  ZZM  29 10
M  ZZI  29 211
M  ZZM  30 10
M  ZZI  30 211
M  ZZM  31 7
M  ZZI  31 81
M  ZZM  32 7
M  ZZI  32 82
M  ZZM  33 7
M  ZZI  33 81
M  ZZM  34 7
M  ZZI  34 81
M  ZZM  35 6
M  ZZI  35 65
M  ZZM  36 5
M  ZZI  36 1
M  ZZM  37 5
M  ZZI  37 1
M  ZZM  38 5
M  ZZI  38 1
M  ZZM  39 5
M  ZZI  39 1
M  ZZM  40 5
M  ZZI  40 1
M  ZZM  41 5
M  ZZI  41 1
M  ZZM  42 5
M  ZZI  42 1
M  ZZM  43 5
M  ZZI  43 1
M  ZZM  44 5
M  ZZI  44 1
M  ZZM  45 5
M  ZZI  45 1
M  ZZM  46 5
M  ZZI  46 1
M  ZZM  47 5
M  ZZI  47 1
M  ZZM  48 5
M  ZZI  48 1
M  ZZM  49 5
M  ZZI  49 1
M  ZZM  50 5
M  ZZI  50 1
M  ZZM  51 5
M  ZZI  51 1
M  ZZM  52 5
M  ZZI  52 1
M  ZZM  53 5
M  ZZI  53 1
M  ZZM  54 5
M  ZZI  54 1
M  ZZM  55 28
M  ZZI  55 11
M  ZZM  56 28
M  ZZI  56 11
M  ZZM  57 28
M  ZZI  57 11
M  ZZM  58 28
M  ZZI  58 11
M  END
> <IX>
85

> <NAME>
79

> <Score>
-32.921629

> <Natom>
58

> <Nflex>
6

> <Hbond>
-7.148071

> <Hphob>
-5.553816

> <VwInt>
-42.419722

> <Dsolv>
21.294858

> <SolEl>
11.581252

> <Eintl>
6.814999

> <RecConf>
ND

> <projPath>
icm/

> <NAME_>
79

$$$$
66
  MOLSOFT 08042117133D

 59 62  0  0  1  0  0  0  0  0999 V2000
  -19.7612   13.8125  -28.8593 C   0  0  0  0  0  0  0  0  0  0  0  0
  -19.5731   15.1234  -29.2714 C   0  0  0  0  0  0  0  0  0  0  0  0
  -20.1130   13.5412  -27.5482 C   0  0  0  0  0  0  0  0  0  0  0  0
  -19.7346   16.1772  -28.3884 C   0  0  0  0  0  0  0  0  0  0  0  0
  -20.2912   14.5986  -26.6770 C   0  0  0  0  0  0  0  0  0  0  0  0
  -20.1108   15.8953  -27.0841 C   0  0  0  0  0  0  0  0  0  0  0  0
  -17.6703   23.8781  -24.6031 C   0  0  0  0  0  0  0  0  0  0  0  0
  -16.6573   23.3252  -25.2795 C   0  0  0  0  0  0  0  0  0  0  0  0
  -21.5748   19.5440  -19.2866 C   0  0  0  0  0  0  0  0  0  0  0  0
  -21.1286   19.5245  -20.5519 C   0  0  0  0  0  0  0  0  0  0  0  0
  -19.0663   23.4636  -24.8284 C   0  0  0  0  0  0  0  0  0  0  0  0
  -16.8685   22.2643  -26.2821 C   0  0  0  0  0  0  0  0  0  0  0  0
  -20.0570   20.4885  -20.8974 C   0  0  0  0  0  0  0  0  0  0  0  0
  -20.1546   21.1541  -18.5906 C   0  0  0  0  0  0  0  0  0  0  0  0
  -21.6524   18.6776  -21.5966 C   0  0  0  0  0  0  0  0  0  0  0  0
  -21.6784   17.3364  -21.5556 C   0  0  0  0  0  0  0  0  0  0  0  0
  -22.0937   16.6870  -22.8149 C   0  0  0  0  0  0  0  0  0  0  0  0
  -19.0794   19.6660  -26.5799 C   0  0  0  0  0  0  0  0  0  0  0  0
  -20.6511   14.5243  -25.2330 C   0  0  0  0  0  0  0  0  0  0  0  0
  -20.3159   16.8379  -25.9372 C   0  0  2  0  0  0  0  0  0  0  0  0
  -21.1430   15.9513  -24.9907 C   0  0  2  0  0  0  0  0  0  0  0  0
  -19.5312   22.0697  -17.5734 C   0  0  0  0  0  0  0  0  0  0  0  0
  -18.5900   20.8397  -27.4136 C   0  0  0  0  0  0  0  0  0  0  0  0
  -21.0412   18.1586  -26.2421 C   0  0  0  0  0  0  0  0  0  0  0  0
  -21.1220   20.3523  -18.2750 N   0  0  0  0  0  0  0  0  0  0  0  0
  -19.6188   21.2391  -19.8494 N   0  0  0  0  0  0  0  0  0  0  0  0
  -19.2553   22.5222  -25.8103 N   0  0  0  0  0  0  0  0  0  0  0  0
  -18.1913   21.9277  -26.5221 N   0  0  0  0  0  0  0  0  0  0  0  0
  -21.0057   16.3759  -23.6045 N   0  0  0  0  0  0  0  0  0  0  0  0
  -20.2808   19.1306  -27.0144 N   0  0  0  0  0  0  0  0  0  0  0  0
  -19.9769   23.9446  -24.1743 O   0  0  0  0  0  0  0  0  0  0  0  0
  -15.9081   21.7477  -26.8307 O   0  0  0  0  0  0  0  0  0  0  0  0
  -19.6118   20.5938  -22.0295 O   0  0  0  0  0  0  0  0  0  0  0  0
  -23.2717   16.5229  -23.0984 O   0  0  0  0  0  0  0  0  0  0  0  0
  -18.4612   19.2432  -25.6145 O   0  0  0  0  0  0  0  0  0  0  0  0
  -19.6291   12.9982  -29.5631 H   0  0  0  0  0  0  0  0  0  0  0  0
  -19.2919   15.3315  -30.2951 H   0  0  0  0  0  0  0  0  0  0  0  0
  -20.2489   12.5223  -27.2125 H   0  0  0  0  0  0  0  0  0  0  0  0
  -19.5598   17.1932  -28.7242 H   0  0  0  0  0  0  0  0  0  0  0  0
  -17.4999   24.6435  -23.8555 H   0  0  0  0  0  0  0  0  0  0  0  0
  -15.6340   23.6236  -25.0976 H   0  0  0  0  0  0  0  0  0  0  0  0
  -22.3772   18.8740  -18.9934 H   0  0  0  0  0  0  0  0  0  0  0  0
  -21.9510   19.1966  -22.5040 H   0  0  0  0  0  0  0  0  0  0  0  0
  -21.3258   16.7288  -20.7305 H   0  0  0  0  0  0  0  0  0  0  0  0
  -21.4368   13.7901  -25.0405 H   0  0  0  0  0  0  0  0  0  0  0  0
  -19.7687   14.2771  -24.6311 H   0  0  0  0  0  0  0  0  0  0  0  0
  -19.3396   17.0375  -25.4867 H   0  0  0  0  0  0  0  0  0  0  0  0
  -22.2049   16.0013  -25.2688 H   0  0  0  0  0  0  0  0  0  0  0  0
  -20.0043   21.9392  -16.5956 H   0  0  0  0  0  0  0  0  0  0  0  0
  -19.6444   23.1083  -17.8982 H   0  0  0  0  0  0  0  0  0  0  0  0
  -18.4621   21.8493  -17.4945 H   0  0  0  0  0  0  0  0  0  0  0  0
  -17.7353   20.5067  -28.0087 H   0  0  0  0  0  0  0  0  0  0  0  0
  -19.3673   21.2080  -28.0926 H   0  0  0  0  0  0  0  0  0  0  0  0
  -21.9705   17.9750  -26.7923 H   0  0  0  0  0  0  0  0  0  0  0  0
  -21.3081   18.6580  -25.3047 H   0  0  0  0  0  0  0  0  0  0  0  0
  -18.8741   21.8936  -20.0471 H   0  0  0  0  0  0  0  0  0  0  0  0
  -20.2013   22.2115  -26.0019 H   0  0  0  0  0  0  0  0  0  0  0  0
  -20.0705   16.5458  -23.2402 H   0  0  0  0  0  0  0  0  0  0  0  0
  -20.7246   19.5075  -27.8448 H   0  0  0  0  0  0  0  0  0  0  0  0
  1 36  1  0  0  0  0
  1  2  1  0  0  0  0
  1  3  2  0  0  0  0
  2 37  1  0  0  0  0
  2  4  2  0  0  0  0
  3  5  1  0  0  0  0
  3 38  1  0  0  0  0
  4 39  1  0  0  0  0
  4  6  1  0  0  0  0
  5 19  1  0  0  0  0
  5  6  2  0  0  0  0
 20  6  1  0  0  0  0
  7  8  2  0  0  0  0
  7 40  1  0  0  0  0
  7 11  1  0  0  0  0
  8 12  1  0  0  0  0
  8 41  1  0  0  0  0
  9 25  1  0  0  0  0
  9 42  1  0  0  0  0
  9 10  2  0  0  0  0
 10 15  1  0  0  0  0
 10 13  1  0  0  0  0
 11 31  2  0  0  0  0
 11 27  1  0  0  0  0
 12 28  1  0  0  0  0
 12 32  2  0  0  0  0
 13 33  2  0  0  0  0
 13 26  1  0  0  0  0
 14 26  1  0  0  0  0
 14 22  1  0  0  0  0
 14 25  2  0  0  0  0
 15 16  2  0  0  0  0
 15 43  1  0  0  0  0
 16 17  1  0  0  0  0
 16 44  1  0  0  0  0
 17 29  1  0  0  0  0
 17 34  2  0  0  0  0
 18 30  1  0  0  0  0
 18 35  2  0  0  0  0
 18 23  1  0  0  0  0
 21 19  1  0  0  0  0
 19 45  1  0  0  0  0
 19 46  1  0  0  0  0
 20 47  1  0  0  0  0
 20 24  1  0  0  0  0
 20 21  1  0  0  0  0
 21 48  1  0  0  0  0
 21 29  1  0  0  0  0
 22 49  1  0  0  0  0
 22 50  1  0  0  0  0
 22 51  1  0  0  0  0
 23 52  1  0  0  0  0
 23 53  1  0  0  0  0
 23 28  1  0  0  0  0
 24 54  1  0  0  0  0
 24 55  1  0  0  0  0
 24 30  1  0  0  0  0
 26 56  1  0  0  0  0
 27 57  1  0  0  0  0
 27 28  1  0  0  0  0
 29 58  1  0  0  0  0
 30 59  1  0  0  0  0
M  ZZC   1 c1
M  ZZC   2 c2
M  ZZC   3 c3
M  ZZC   4 c4
M  ZZC   5 c5
M  ZZC   6 c6
M  ZZC   7 c7
M  ZZC   8 c8
M  ZZC   9 c9
M  ZZC  10 c10
M  ZZC  11 c11
M  ZZC  12 c12
M  ZZC  13 c13
M  ZZC  14 c14
M  ZZC  15 c15
M  ZZC  16 c16
M  ZZC  17 c17
M  ZZC  18 c18
M  ZZC  19 c19
M  ZZC  20 c20
M  ZZC  21 c21
M  ZZC  22 c22
M  ZZC  23 c23
M  ZZC  24 c24
M  ZZC  25 n1
M  ZZC  26 n2
M  ZZC  27 n3
M  ZZC  28 n4
M  ZZC  29 n5
M  ZZC  30 n6
M  ZZC  31 o1
M  ZZC  32 o2
M  ZZC  33 o3
M  ZZC  34 o4
M  ZZC  35 o5
M  ZZC  36 h1
M  ZZC  37 h2
M  ZZC  38 h3
M  ZZC  39 h4
M  ZZC  40 h5
M  ZZC  41 h6
M  ZZC  42 h7
M  ZZC  43 h8
M  ZZC  44 h9
M  ZZC  45 h10
M  ZZC  46 h11
M  ZZC  47 h12
M  ZZC  48 h13
M  ZZC  49 h14
M  ZZC  50 h15
M  ZZC  51 h16
M  ZZC  52 h17
M  ZZC  53 h18
M  ZZC  54 h19
M  ZZC  55 h20
M  ZZC  56 h21
M  ZZC  57 h22
M  ZZC  58 h23
M  ZZC  59 h24
M  ZZM   1 37
M  ZZI   1 125
M  ZZM   2 37
M  ZZI   2 125
M  ZZM   3 37
M  ZZI   3 125
M  ZZM   4 37
M  ZZI   4 125
M  ZZM   5 37
M  ZZI   5 124
M  ZZM   6 37
M  ZZI   6 124
M  ZZM   7 2
M  ZZI   7 120
M  ZZM   8 2
M  ZZI   8 120
M  ZZM   9 2
M  ZZI   9 120
M  ZZM  10 2
M  ZZI  10 120
M  ZZM  11 3
M  ZZI  11 121
M  ZZM  12 3
M  ZZI  12 121
M  ZZM  13 3
M  ZZI  13 121
M  ZZM  14 3
M  ZZI  14 121
M  ZZM  15 2
M  ZZI  15 120
M  ZZM  16 2
M  ZZI  16 120
M  ZZM  17 3
M  ZZI  17 121
M  ZZM  18 3
M  ZZI  18 121
M  ZZM  19 1
M  ZZI  19 112
M  ZZM  20 1
M  ZZI  20 113
M  ZZM  21 1
M  ZZI  21 113
M  ZZM  22 1
M  ZZI  22 111
M  ZZM  23 1
M  ZZI  23 112
M  ZZM  24 1
M  ZZI  24 112
M  ZZM  25 9
M  ZZI  25 220
M  ZZM  26 10
M  ZZI  26 191
M  ZZM  27 10
M  ZZI  27 191
M  ZZM  28 10
M  ZZI  28 192
M  ZZM  29 10
M  ZZI  29 211
M  ZZM  30 10
M  ZZI  30 211
M  ZZM  31 7
M  ZZI  31 81
M  ZZM  32 7
M  ZZI  32 81
M  ZZM  33 7
M  ZZI  33 81
M  ZZM  34 7
M  ZZI  34 81
M  ZZM  35 7
M  ZZI  35 81
M  ZZM  36 5
M  ZZI  36 1
M  ZZM  37 5
M  ZZI  37 1
M  ZZM  38 5
M  ZZI  38 1
M  ZZM  39 5
M  ZZI  39 1
M  ZZM  40 5
M  ZZI  40 1
M  ZZM  41 5
M  ZZI  41 1
M  ZZM  42 5
M  ZZI  42 1
M  ZZM  43 5
M  ZZI  43 1
M  ZZM  44 5
M  ZZI  44 1
M  ZZM  45 5
M  ZZI  45 1
M  ZZM  46 5
M  ZZI  46 1
M  ZZM  47 5
M  ZZI  47 1
M  ZZM  48 5
M  ZZI  48 1
M  ZZM  49 5
M  ZZI  49 1
M  ZZM  50 5
M  ZZI  50 1
M  ZZM  51 5
M  ZZI  51 1
M  ZZM  52 5
M  ZZI  52 1
M  ZZM  53 5
M  ZZI  53 1
M  ZZM  54 5
M  ZZI  54 1
M  ZZM  55 5
M  ZZI  55 1
M  ZZM  56 28
M  ZZI  56 11
M  ZZM  57 28
M  ZZI  57 11
M  ZZM  58 28
M  ZZI  58 11
M  ZZM  59 28
M  ZZI  59 11
M  END
> <IX>
86

> <NAME>
66

> <Score>
-28.017944

> <Natom>
59

> <Nflex>
5

> <Hbond>
-6.123401

> <Hphob>
-5.479106

> <VwInt>
-38.001165

> <Dsolv>
20.560016

> <SolEl>
5.857752

> <Eintl>
11.433828

> <RecConf>
ND

> <projPath>
icm/

> <NAME_>
66

$$$$
97
  MOLSOFT 08042117143D

 55 58  0  0  1  0  0  0  0  0999 V2000
  -24.7364   17.5910  -32.2521 C   0  0  0  0  0  0  0  0  0  0  0  0
  -23.6267   16.7690  -32.2785 C   0  0  0  0  0  0  0  0  0  0  0  0
  -24.9485   18.4248  -31.1701 C   0  0  0  0  0  0  0  0  0  0  0  0
  -22.7355   16.7602  -31.2185 C   0  0  0  0  0  0  0  0  0  0  0  0
  -24.2700   19.2518  -29.0034 C   0  0  0  0  0  0  0  0  0  0  0  0
  -23.4058   19.2226  -27.9241 C   0  0  0  0  0  0  0  0  0  0  0  0
  -22.0798   17.5620  -29.0227 C   0  0  0  0  0  0  0  0  0  0  0  0
  -24.0585   18.4262  -30.0996 C   0  0  0  0  0  0  0  0  0  0  0  0
  -22.9480   17.5817  -30.1138 C   0  0  0  0  0  0  0  0  0  0  0  0
  -22.3047   18.3660  -27.9036 C   0  0  0  0  0  0  0  0  0  0  0  0
  -19.4451   22.0659  -25.2690 C   0  0  0  0  0  0  0  0  0  0  0  0
  -17.5354   21.0386  -26.3493 C   0  0  0  0  0  0  0  0  0  0  0  0
  -18.7638   23.2027  -25.1046 C   0  0  0  0  0  0  0  0  0  0  0  0
  -18.7958   20.9449  -25.8988 C   0  0  0  0  0  0  0  0  0  0  0  0
  -20.8388   15.2308  -21.9277 C   0  0  0  0  0  0  0  0  0  0  0  0
  -21.3603   14.2535  -21.1861 C   0  0  0  0  0  0  0  0  0  0  0  0
  -16.7828   22.2989  -26.1648 C   0  0  0  0  0  0  0  0  0  0  0  0
  -19.7453   14.5771  -22.7066 C   0  0  0  0  0  0  0  0  0  0  0  0
  -19.3959   19.5801  -25.9745 C   0  0  0  0  0  0  0  0  0  0  0  0
  -22.0668   16.9625  -23.1632 C   0  0  0  0  0  0  0  0  0  0  0  0
  -22.4659   14.3207  -20.1818 C   0  0  0  0  0  0  0  0  0  0  0  0
  -21.1286   16.6978  -22.0024 C   0  0  0  0  0  0  0  0  0  0  0  0
  -22.2241   17.8527  -25.4538 C   0  0  0  0  0  0  0  0  0  0  0  0
  -21.3972   18.2766  -26.6888 C   0  0  2  0  0  0  0  0  0  0  0  0
  -17.4654   23.3131  -25.5309 N   0  0  0  0  0  0  0  0  0  0  0  0
  -20.7282   13.0842  -21.4336 N   0  0  0  0  0  0  0  0  0  0  0  0
  -20.6796   19.5365  -26.4832 N   0  0  0  0  0  0  0  0  0  0  0  0
  -21.4433   17.4863  -24.2814 N   0  0  0  0  0  0  0  0  0  0  0  0
  -15.6246   22.3737  -26.5386 O   0  0  0  0  0  0  0  0  0  0  0  0
  -19.0233   15.1325  -23.5218 O   0  0  0  0  0  0  0  0  0  0  0  0
  -18.7449   18.6093  -25.6165 O   0  0  0  0  0  0  0  0  0  0  0  0
  -23.2640   16.7138  -23.0919 O   0  0  0  0  0  0  0  0  0  0  0  0
  -19.6974   13.2538  -22.3379 O   0  0  0  0  0  0  0  0  0  0  0  0
  -25.4410   17.5822  -33.0778 H   0  0  0  0  0  0  0  0  0  0  0  0
  -23.4576   16.1262  -33.1345 H   0  0  0  0  0  0  0  0  0  0  0  0
  -25.8238   19.0677  -31.1665 H   0  0  0  0  0  0  0  0  0  0  0  0
  -21.8733   16.1008  -31.2641 H   0  0  0  0  0  0  0  0  0  0  0  0
  -25.1264   19.9192  -28.9730 H   0  0  0  0  0  0  0  0  0  0  0  0
  -23.6160   19.8727  -27.0802 H   0  0  0  0  0  0  0  0  0  0  0  0
  -21.2235   16.8924  -29.0366 H   0  0  0  0  0  0  0  0  0  0  0  0
  -20.4624   21.9709  -24.9068 H   0  0  0  0  0  0  0  0  0  0  0  0
  -17.0015   20.2152  -26.8091 H   0  0  0  0  0  0  0  0  0  0  0  0
  -19.1900   24.0759  -24.6197 H   0  0  0  0  0  0  0  0  0  0  0  0
  -22.1060   14.0164  -19.1947 H   0  0  0  0  0  0  0  0  0  0  0  0
  -23.2795   13.6477  -20.4692 H   0  0  0  0  0  0  0  0  0  0  0  0
  -22.8813   15.3283  -20.0965 H   0  0  0  0  0  0  0  0  0  0  0  0
  -20.2012   17.2689  -22.1126 H   0  0  0  0  0  0  0  0  0  0  0  0
  -21.6051   17.0583  -21.0857 H   0  0  0  0  0  0  0  0  0  0  0  0
  -22.9013   18.6537  -25.1363 H   0  0  0  0  0  0  0  0  0  0  0  0
  -22.8551   16.9896  -25.6983 H   0  0  0  0  0  0  0  0  0  0  0  0
  -20.6405   17.5033  -26.8678 H   0  0  0  0  0  0  0  0  0  0  0  0
  -16.9594   24.1748  -25.3559 H   0  0  0  0  0  0  0  0  0  0  0  0
  -20.7247   12.3046  -20.7773 H   0  0  0  0  0  0  0  0  0  0  0  0
  -21.1278   20.4000  -26.7674 H   0  0  0  0  0  0  0  0  0  0  0  0
  -20.4342   17.6282  -24.2855 H   0  0  0  0  0  0  0  0  0  0  0  0
  1  3  2  0  0  0  0
  1 34  1  0  0  0  0
  1  2  1  0  0  0  0
  2 35  1  0  0  0  0
  2  4  2  0  0  0  0
  3  8  1  0  0  0  0
  3 36  1  0  0  0  0
  4 37  1  0  0  0  0
  4  9  1  0  0  0  0
  5  6  2  0  0  0  0
  5 38  1  0  0  0  0
  5  8  1  0  0  0  0
  6 10  1  0  0  0  0
  6 39  1  0  0  0  0
  7  9  1  0  0  0  0
  7 40  1  0  0  0  0
  7 10  2  0  0  0  0
  8  9  2  0  0  0  0
 24 10  1  0  0  0  0
 11 14  1  0  0  0  0
 11 41  1  0  0  0  0
 11 13  2  0  0  0  0
 12 17  1  0  0  0  0
 12 42  1  0  0  0  0
 12 14  2  0  0  0  0
 13 43  1  0  0  0  0
 13 25  1  0  0  0  0
 14 19  1  0  0  0  0
 15 18  1  0  0  0  0
 15 16  2  0  0  0  0
 15 22  1  0  0  0  0
 16 21  1  0  0  0  0
 16 26  1  0  0  0  0
 17 25  1  0  0  0  0
 17 29  2  0  0  0  0
 18 30  2  0  0  0  0
 18 33  1  0  0  0  0
 19 27  1  0  0  0  0
 19 31  2  0  0  0  0
 20 22  1  0  0  0  0
 20 32  2  0  0  0  0
 20 28  1  0  0  0  0
 21 44  1  0  0  0  0
 21 45  1  0  0  0  0
 21 46  1  0  0  0  0
 22 47  1  0  0  0  0
 22 48  1  0  0  0  0
 23 28  1  0  0  0  0
 23 49  1  0  0  0  0
 23 50  1  0  0  0  0
 24 23  1  0  0  0  0
 24 51  1  0  0  0  0
 24 27  1  0  0  0  0
 25 52  1  0  0  0  0
 26 53  1  0  0  0  0
 26 33  1  0  0  0  0
 27 54  1  0  0  0  0
 28 55  1  0  0  0  0
M  ZZC   1 c1
M  ZZC   2 c2
M  ZZC   3 c3
M  ZZC   4 c4
M  ZZC   5 c5
M  ZZC   6 c6
M  ZZC   7 c7
M  ZZC   8 c8
M  ZZC   9 c9
M  ZZC  10 c10
M  ZZC  11 c11
M  ZZC  12 c12
M  ZZC  13 c13
M  ZZC  14 c14
M  ZZC  15 c15
M  ZZC  16 c16
M  ZZC  17 c17
M  ZZC  18 c18
M  ZZC  19 c19
M  ZZC  20 c20
M  ZZC  21 c21
M  ZZC  22 c22
M  ZZC  23 c23
M  ZZC  24 c24
M  ZZC  25 n1
M  ZZC  26 n2
M  ZZC  27 n3
M  ZZC  28 n4
M  ZZC  29 o1
M  ZZC  30 o2
M  ZZC  31 o3
M  ZZC  32 o4
M  ZZC  33 o5
M  ZZC  34 h1
M  ZZC  35 h2
M  ZZC  36 h3
M  ZZC  37 h4
M  ZZC  38 h5
M  ZZC  39 h6
M  ZZC  40 h7
M  ZZC  41 h8
M  ZZC  42 h9
M  ZZC  43 h10
M  ZZC  44 h11
M  ZZC  45 h12
M  ZZC  46 h13
M  ZZC  47 h14
M  ZZC  48 h15
M  ZZC  49 h16
M  ZZC  50 h17
M  ZZC  51 h18
M  ZZC  52 h19
M  ZZC  53 h20
M  ZZC  54 h21
M  ZZC  55 h22
M  ZZM   1 37
M  ZZI   1 125
M  ZZM   2 37
M  ZZI   2 125
M  ZZM   3 37
M  ZZI   3 125
M  ZZM   4 37
M  ZZI   4 125
M  ZZM   5 37
M  ZZI   5 125
M  ZZM   6 37
M  ZZI   6 125
M  ZZM   7 37
M  ZZI   7 125
M  ZZM   8 37
M  ZZI   8 124
M  ZZM   9 37
M  ZZI   9 124
M  ZZM  10 37
M  ZZI  10 124
M  ZZM  11 2
M  ZZI  11 120
M  ZZM  12 2
M  ZZI  12 120
M  ZZM  13 2
M  ZZI  13 120
M  ZZM  14 2
M  ZZI  14 120
M  ZZM  15 2
M  ZZI  15 120
M  ZZM  16 2
M  ZZI  16 120
M  ZZM  17 3
M  ZZI  17 121
M  ZZM  18 3
M  ZZI  18 123
M  ZZM  19 3
M  ZZI  19 121
M  ZZM  20 3
M  ZZI  20 121
M  ZZM  21 1
M  ZZI  21 111
M  ZZM  22 1
M  ZZI  22 112
M  ZZM  23 1
M  ZZI  23 112
M  ZZM  24 1
M  ZZI  24 113
M  ZZM  25 10
M  ZZI  25 191
M  ZZM  26 40
M  ZZI  26 194
M  ZZM  27 10
M  ZZI  27 211
M  ZZM  28 10
M  ZZI  28 211
M  ZZM  29 7
M  ZZI  29 81
M  ZZM  30 7
M  ZZI  30 82
M  ZZM  31 7
M  ZZI  31 81
M  ZZM  32 7
M  ZZI  32 81
M  ZZM  33 6
M  ZZI  33 65
M  ZZM  34 5
M  ZZI  34 1
M  ZZM  35 5
M  ZZI  35 1
M  ZZM  36 5
M  ZZI  36 1
M  ZZM  37 5
M  ZZI  37 1
M  ZZM  38 5
M  ZZI  38 1
M  ZZM  39 5
M  ZZI  39 1
M  ZZM  40 5
M  ZZI  40 1
M  ZZM  41 5
M  ZZI  41 1
M  ZZM  42 5
M  ZZI  42 1
M  ZZM  43 5
M  ZZI  43 1
M  ZZM  44 5
M  ZZI  44 1
M  ZZM  45 5
M  ZZI  45 1
M  ZZM  46 5
M  ZZI  46 1
M  ZZM  47 5
M  ZZI  47 1
M  ZZM  48 5
M  ZZI  48 1
M  ZZM  49 5
M  ZZI  49 1
M  ZZM  50 5
M  ZZI  50 1
M  ZZM  51 5
M  ZZI  51 1
M  ZZM  52 28
M  ZZI  52 11
M  ZZM  53 28
M  ZZI  53 11
M  ZZM  54 28
M  ZZI  54 11
M  ZZM  55 28
M  ZZI  55 11
M  END
> <IX>
87

> <NAME>
97

> <Score>
-37.138515

> <Natom>
55

> <Nflex>
6

> <Hbond>
-8.460806

> <Hphob>
-5.546464

> <VwInt>
-38.579892

> <Dsolv>
20.740678

> <SolEl>
7.735555

> <Eintl>
3.837287

> <RecConf>
ND

> <projPath>
icm/

> <NAME_>
97

$$$$
95
  MOLSOFT 08042117153D

 54 57  0  0  1  0  0  0  0  0999 V2000
  -21.5981   12.9655  -29.9399 C   0  0  0  0  0  0  0  0  0  0  0  0
  -22.7580   13.7104  -29.8675 C   0  0  0  0  0  0  0  0  0  0  0  0
  -20.6481   13.0624  -28.9424 C   0  0  0  0  0  0  0  0  0  0  0  0
  -22.9781   14.5377  -28.7829 C   0  0  0  0  0  0  0  0  0  0  0  0
  -19.9378   13.9583  -26.8179 C   0  0  0  0  0  0  0  0  0  0  0  0
  -20.1666   14.7699  -25.7225 C   0  0  0  0  0  0  0  0  0  0  0  0
  -22.2706   15.4294  -26.6514 C   0  0  0  0  0  0  0  0  0  0  0  0
  -20.8707   13.8754  -27.8399 C   0  0  0  0  0  0  0  0  0  0  0  0
  -22.0460   14.6167  -27.7555 C   0  0  0  0  0  0  0  0  0  0  0  0
  -21.3343   15.5240  -25.6248 C   0  0  0  0  0  0  0  0  0  0  0  0
  -17.2248   23.3649  -25.3811 C   0  0  0  0  0  0  0  0  0  0  0  0
  -18.4955   23.4664  -24.9720 C   0  0  0  0  0  0  0  0  0  0  0  0
  -23.3718   15.1060  -20.0445 C   0  0  0  0  0  0  0  0  0  0  0  0
  -22.4982   13.4993  -18.7411 C   0  0  0  0  0  0  0  0  0  0  0  0
  -22.4907   14.9343  -21.0454 C   0  0  0  0  0  0  0  0  0  0  0  0
  -16.7892   22.2890  -26.2926 C   0  0  0  0  0  0  0  0  0  0  0  0
  -19.5260   22.4872  -25.3791 C   0  0  0  0  0  0  0  0  0  0  0  0
  -21.4662   13.8788  -20.8772 C   0  0  0  0  0  0  0  0  0  0  0  0
  -22.6332   15.7985  -22.2511 C   0  0  0  0  0  0  0  0  0  0  0  0
  -19.6335   19.2181  -25.7997 C   0  0  0  0  0  0  0  0  0  0  0  0
  -19.9480   20.4031  -26.6994 C   0  0  0  0  0  0  0  0  0  0  0  0
  -20.6165   17.5530  -24.2517 C   0  0  0  0  0  0  0  0  0  0  0  0
  -21.6200   16.4005  -24.4250 C   0  0  2  0  0  0  0  0  0  0  0  0
  -23.4098   14.4058  -18.8690 N   0  0  0  0  0  0  0  0  0  0  0  0
  -21.5434   13.2318  -19.6825 N   0  0  0  0  0  0  0  0  0  0  0  0
  -17.7774   21.4609  -26.7574 N   0  0  0  0  0  0  0  0  0  0  0  0
  -19.1050   21.5246  -26.2863 N   0  0  0  0  0  0  0  0  0  0  0  0
  -21.6702   15.5991  -23.2135 N   0  0  0  0  0  0  0  0  0  0  0  0
  -20.7437   18.5990  -25.2572 N   0  0  0  0  0  0  0  0  0  0  0  0
  -15.6155   22.1622  -26.5970 O   0  0  0  0  0  0  0  0  0  0  0  0
  -20.6554   22.5601  -24.9156 O   0  0  0  0  0  0  0  0  0  0  0  0
  -20.6424   13.6016  -21.7376 O   0  0  0  0  0  0  0  0  0  0  0  0
  -23.5553   16.5926  -22.3750 O   0  0  0  0  0  0  0  0  0  0  0  0
  -18.4894   18.8578  -25.5647 O   0  0  0  0  0  0  0  0  0  0  0  0
  -21.4265   12.3049  -30.7794 H   0  0  0  0  0  0  0  0  0  0  0  0
  -23.4933   13.6528  -30.6623 H   0  0  0  0  0  0  0  0  0  0  0  0
  -19.7295   12.4958  -29.0310 H   0  0  0  0  0  0  0  0  0  0  0  0
  -23.8881   15.1245  -28.7459 H   0  0  0  0  0  0  0  0  0  0  0  0
  -19.0235   13.3773  -26.8633 H   0  0  0  0  0  0  0  0  0  0  0  0
  -19.4184   14.8029  -24.9361 H   0  0  0  0  0  0  0  0  0  0  0  0
  -23.1932   16.0008  -26.5904 H   0  0  0  0  0  0  0  0  0  0  0  0
  -16.4666   24.0645  -25.0541 H   0  0  0  0  0  0  0  0  0  0  0  0
  -18.8085   24.2564  -24.2994 H   0  0  0  0  0  0  0  0  0  0  0  0
  -24.1481   15.8620  -20.1214 H   0  0  0  0  0  0  0  0  0  0  0  0
  -22.4278   12.8669  -17.8410 H   0  0  0  0  0  0  0  0  0  0  0  0
  -19.7393   20.1389  -27.7417 H   0  0  0  0  0  0  0  0  0  0  0  0
  -21.0020   20.6870  -26.6115 H   0  0  0  0  0  0  0  0  0  0  0  0
  -20.7832   18.0502  -23.2900 H   0  0  0  0  0  0  0  0  0  0  0  0
  -19.5870   17.1822  -24.2271 H   0  0  0  0  0  0  0  0  0  0  0  0
  -22.6120   16.8459  -24.5600 H   0  0  0  0  0  0  0  0  0  0  0  0
  -20.8749   12.4900  -19.5249 H   0  0  0  0  0  0  0  0  0  0  0  0
  -17.5210   20.7052  -27.3865 H   0  0  0  0  0  0  0  0  0  0  0  0
  -20.9513   14.8941  -23.0711 H   0  0  0  0  0  0  0  0  0  0  0  0
  -21.6681   18.9765  -25.4400 H   0  0  0  0  0  0  0  0  0  0  0  0
  1 35  1  0  0  0  0
  1  2  1  0  0  0  0
  1  3  2  0  0  0  0
  2 36  1  0  0  0  0
  2  4  2  0  0  0  0
  3  8  1  0  0  0  0
  3 37  1  0  0  0  0
  4 38  1  0  0  0  0
  4  9  1  0  0  0  0
  5  6  2  0  0  0  0
  5 39  1  0  0  0  0
  5  8  1  0  0  0  0
  6 10  1  0  0  0  0
  6 40  1  0  0  0  0
  7  9  1  0  0  0  0
  7 41  1  0  0  0  0
  7 10  2  0  0  0  0
  8  9  2  0  0  0  0
 23 10  1  0  0  0  0
 11 12  2  0  0  0  0
 11 42  1  0  0  0  0
 11 16  1  0  0  0  0
 12 17  1  0  0  0  0
 12 43  1  0  0  0  0
 13 15  2  0  0  0  0
 13 44  1  0  0  0  0
 13 24  1  0  0  0  0
 14 24  2  0  0  0  0
 14 45  1  0  0  0  0
 14 25  1  0  0  0  0
 15 19  1  0  0  0  0
 15 18  1  0  0  0  0
 16 30  2  0  0  0  0
 16 26  1  0  0  0  0
 17 27  1  0  0  0  0
 17 31  2  0  0  0  0
 18 25  1  0  0  0  0
 18 32  2  0  0  0  0
 19 28  1  0  0  0  0
 19 33  2  0  0  0  0
 20 29  1  0  0  0  0
 20 34  2  0  0  0  0
 20 21  1  0  0  0  0
 21 46  1  0  0  0  0
 21 47  1  0  0  0  0
 21 27  1  0  0  0  0
 23 22  1  0  0  0  0
 22 48  1  0  0  0  0
 22 49  1  0  0  0  0
 22 29  1  0  0  0  0
 23 50  1  0  0  0  0
 23 28  1  0  0  0  0
 25 51  1  0  0  0  0
 26 52  1  0  0  0  0
 26 27  1  0  0  0  0
 28 53  1  0  0  0  0
 29 54  1  0  0  0  0
M  ZZC   1 c1
M  ZZC   2 c2
M  ZZC   3 c3
M  ZZC   4 c4
M  ZZC   5 c5
M  ZZC   6 c6
M  ZZC   7 c7
M  ZZC   8 c8
M  ZZC   9 c9
M  ZZC  10 c10
M  ZZC  11 c11
M  ZZC  12 c12
M  ZZC  13 c13
M  ZZC  14 c14
M  ZZC  15 c15
M  ZZC  16 c16
M  ZZC  17 c17
M  ZZC  18 c18
M  ZZC  19 c19
M  ZZC  20 c20
M  ZZC  21 c21
M  ZZC  22 c22
M  ZZC  23 c23
M  ZZC  24 n1
M  ZZC  25 n2
M  ZZC  26 n3
M  ZZC  27 n4
M  ZZC  28 n5
M  ZZC  29 n6
M  ZZC  30 o1
M  ZZC  31 o2
M  ZZC  32 o3
M  ZZC  33 o4
M  ZZC  34 o5
M  ZZC  35 h1
M  ZZC  36 h2
M  ZZC  37 h3
M  ZZC  38 h4
M  ZZC  39 h5
M  ZZC  40 h6
M  ZZC  41 h7
M  ZZC  42 h8
M  ZZC  43 h9
M  ZZC  44 h10
M  ZZC  45 h11
M  ZZC  46 h12
M  ZZC  47 h13
M  ZZC  48 h14
M  ZZC  49 h15
M  ZZC  50 h16
M  ZZC  51 h17
M  ZZC  52 h18
M  ZZC  53 h19
M  ZZC  54 h20
M  ZZM   1 37
M  ZZI   1 125
M  ZZM   2 37
M  ZZI   2 125
M  ZZM   3 37
M  ZZI   3 125
M  ZZM   4 37
M  ZZI   4 125
M  ZZM   5 37
M  ZZI   5 125
M  ZZM   6 37
M  ZZI   6 125
M  ZZM   7 37
M  ZZI   7 125
M  ZZM   8 37
M  ZZI   8 124
M  ZZM   9 37
M  ZZI   9 124
M  ZZM  10 37
M  ZZI  10 124
M  ZZM  11 2
M  ZZI  11 120
M  ZZM  12 2
M  ZZI  12 120
M  ZZM  13 2
M  ZZI  13 120
M  ZZM  14 3
M  ZZI  14 121
M  ZZM  15 2
M  ZZI  15 120
M  ZZM  16 3
M  ZZI  16 121
M  ZZM  17 3
M  ZZI  17 121
M  ZZM  18 3
M  ZZI  18 121
M  ZZM  19 3
M  ZZI  19 121
M  ZZM  20 3
M  ZZI  20 121
M  ZZM  21 1
M  ZZI  21 112
M  ZZM  22 1
M  ZZI  22 112
M  ZZM  23 1
M  ZZI  23 113
M  ZZM  24 9
M  ZZI  24 220
M  ZZM  25 10
M  ZZI  25 191
M  ZZM  26 10
M  ZZI  26 191
M  ZZM  27 10
M  ZZI  27 192
M  ZZM  28 10
M  ZZI  28 211
M  ZZM  29 10
M  ZZI  29 211
M  ZZM  30 7
M  ZZI  30 81
M  ZZM  31 7
M  ZZI  31 81
M  ZZM  32 7
M  ZZI  32 81
M  ZZM  33 7
M  ZZI  33 81
M  ZZM  34 7
M  ZZI  34 81
M  ZZM  35 5
M  ZZI  35 1
M  ZZM  36 5
M  ZZI  36 1
M  ZZM  37 5
M  ZZI  37 1
M  ZZM  38 5
M  ZZI  38 1
M  ZZM  39 5
M  ZZI  39 1
M  ZZM  40 5
M  ZZI  40 1
M  ZZM  41 5
M  ZZI  41 1
M  ZZM  42 5
M  ZZI  42 1
M  ZZM  43 5
M  ZZI  43 1
M  ZZM  44 5
M  ZZI  44 1
M  ZZM  45 5
M  ZZI  45 1
M  ZZM  46 5
M  ZZI  46 1
M  ZZM  47 5
M  ZZI  47 1
M  ZZM  48 5
M  ZZI  48 1
M  ZZM  49 5
M  ZZI  49 1
M  ZZM  50 5
M  ZZI  50 1
M  ZZM  51 28
M  ZZI  51 11
M  ZZM  52 28
M  ZZI  52 11
M  ZZM  53 28
M  ZZI  53 11
M  ZZM  54 28
M  ZZI  54 11
M  END
> <IX>
88

> <NAME>
95

> <Score>
-43.530157

> <Natom>
54

> <Nflex>
6

> <Hbond>
-6.971023

> <Hphob>
-5.720549

> <VwInt>
-41.75258

> <Dsolv>
17.003231

> <SolEl>
2.656903

> <Eintl>
2.643165

> <RecConf>
ND

> <projPath>
icm/

> <NAME_>
95

$$$$
99
  MOLSOFT 08042117163D

 52 54  0  0  1  0  0  0  0  0999 V2000
  -23.4842   16.8345  -31.0808 C   0  0  0  0  0  0  0  0  0  0  0  0
  -23.5641   17.4813  -29.8633 C   0  0  0  0  0  0  0  0  0  0  0  0
  -22.4570   15.9407  -31.3063 C   0  0  0  0  0  0  0  0  0  0  0  0
  -22.6288   17.2282  -28.8753 C   0  0  0  0  0  0  0  0  0  0  0  0
  -21.5104   15.6960  -30.3250 C   0  0  0  0  0  0  0  0  0  0  0  0
  -21.5712   16.3441  -29.0959 C   0  0  0  0  0  0  0  0  0  0  0  0
  -21.8798   15.3182  -20.5335 C   0  0  0  0  0  0  0  0  0  0  0  0
  -21.5722   14.0528  -20.8446 C   0  0  0  0  0  0  0  0  0  0  0  0
  -19.2338   22.2306  -25.6255 C   0  0  0  0  0  0  0  0  0  0  0  0
  -17.9119   23.7722  -24.6582 C   0  0  0  0  0  0  0  0  0  0  0  0
  -18.2539   21.6223  -26.3142 C   0  0  0  0  0  0  0  0  0  0  0  0
  -21.1306   16.4625  -21.0940 C   0  0  0  0  0  0  0  0  0  0  0  0
  -20.5397   13.7283  -21.8497 C   0  0  0  0  0  0  0  0  0  0  0  0
  -16.8923   22.2097  -26.1651 C   0  0  0  0  0  0  0  0  0  0  0  0
  -18.4744   20.4899  -27.1972 C   0  0  0  0  0  0  0  0  0  0  0  0
  -19.2682   19.4472  -26.8945 C   0  0  0  0  0  0  0  0  0  0  0  0
  -19.4697   18.3292  -27.8588 C   0  0  0  0  0  0  0  0  0  0  0  0
  -20.0923   15.3076  -24.8421 C   0  0  0  0  0  0  0  0  0  0  0  0
  -19.2285   14.7206  -23.7297 C   0  0  0  0  0  0  0  0  0  0  0  0
  -21.0101   14.9305  -27.1126 C   0  0  0  0  0  0  0  0  0  0  0  0
  -20.5189   16.0727  -28.0364 C   0  0  2  0  0  0  0  0  0  0  0  0
  -19.1091   23.3018  -24.7811 N   0  0  0  0  0  0  0  0  0  0  0  0
  -16.8203   23.2734  -25.3109 N   0  0  0  0  0  0  0  0  0  0  0  0
  -20.1446   16.1362  -21.9907 N   0  0  0  0  0  0  0  0  0  0  0  0
  -19.9509   14.8211  -22.4616 N   0  0  0  0  0  0  0  0  0  0  0  0
  -20.1898   17.2913  -27.3026 N   0  0  0  0  0  0  0  0  0  0  0  0
  -20.1122   14.5754  -26.0164 N   0  0  0  0  0  0  0  0  0  0  0  0
  -21.3763   17.6068  -20.7457 O   0  0  0  0  0  0  0  0  0  0  0  0
  -20.2791   12.5640  -22.1103 O   0  0  0  0  0  0  0  0  0  0  0  0
  -15.9194   21.7509  -26.7424 O   0  0  0  0  0  0  0  0  0  0  0  0
  -19.0544   18.3547  -29.0083 O   0  0  0  0  0  0  0  0  0  0  0  0
  -20.7060   16.3594  -24.7146 O   0  0  0  0  0  0  0  0  0  0  0  0
  -24.2199   17.0270  -31.8558 H   0  0  0  0  0  0  0  0  0  0  0  0
  -24.3669   18.1880  -29.6793 H   0  0  0  0  0  0  0  0  0  0  0  0
  -22.3922   15.4429  -32.2660 H   0  0  0  0  0  0  0  0  0  0  0  0
  -22.7286   17.7441  -27.9253 H   0  0  0  0  0  0  0  0  0  0  0  0
  -20.7045   14.9984  -30.5262 H   0  0  0  0  0  0  0  0  0  0  0  0
  -22.6610   15.5486  -19.8189 H   0  0  0  0  0  0  0  0  0  0  0  0
  -22.0998   13.2165  -20.4010 H   0  0  0  0  0  0  0  0  0  0  0  0
  -20.2524   21.8674  -25.7132 H   0  0  0  0  0  0  0  0  0  0  0  0
  -17.6874   24.6297  -24.0026 H   0  0  0  0  0  0  0  0  0  0  0  0
  -17.9365   20.5119  -28.1405 H   0  0  0  0  0  0  0  0  0  0  0  0
  -19.7908   19.3880  -25.9461 H   0  0  0  0  0  0  0  0  0  0  0  0
  -19.0120   13.6699  -23.9419 H   0  0  0  0  0  0  0  0  0  0  0  0
  -18.2851   15.2692  -23.6564 H   0  0  0  0  0  0  0  0  0  0  0  0
  -21.9778   15.1893  -26.6669 H   0  0  0  0  0  0  0  0  0  0  0  0
  -21.1688   14.0146  -27.6923 H   0  0  0  0  0  0  0  0  0  0  0  0
  -19.5889   15.7609  -28.5281 H   0  0  0  0  0  0  0  0  0  0  0  0
  -15.9147   23.6962  -25.1544 H   0  0  0  0  0  0  0  0  0  0  0  0
  -19.5660   16.8769  -22.3775 H   0  0  0  0  0  0  0  0  0  0  0  0
  -20.5120   17.3594  -26.3406 H   0  0  0  0  0  0  0  0  0  0  0  0
  -19.5625   13.7249  -26.0942 H   0  0  0  0  0  0  0  0  0  0  0  0
  1 33  1  0  0  0  0
  1  2  1  0  0  0  0
  1  3  2  0  0  0  0
  2 34  1  0  0  0  0
  2  4  2  0  0  0  0
  3  5  1  0  0  0  0
  3 35  1  0  0  0  0
  4 36  1  0  0  0  0
  4  6  1  0  0  0  0
  5  6  2  0  0  0  0
  5 37  1  0  0  0  0
 21  6  1  0  0  0  0
  7  8  2  0  0  0  0
  7 38  1  0  0  0  0
  7 12  1  0  0  0  0
  8 13  1  0  0  0  0
  8 39  1  0  0  0  0
  9 22  1  0  0  0  0
  9 40  1  0  0  0  0
  9 11  2  0  0  0  0
 10 23  1  0  0  0  0
 10 41  1  0  0  0  0
 10 22  2  0  0  0  0
 11 15  1  0  0  0  0
 11 14  1  0  0  0  0
 12 28  2  0  0  0  0
 12 24  1  0  0  0  0
 13 25  1  0  0  0  0
 13 29  2  0  0  0  0
 14 30  2  0  0  0  0
 14 23  1  0  0  0  0
 15 16  2  0  0  0  0
 15 42  1  0  0  0  0
 16 17  1  0  0  0  0
 16 43  1  0  0  0  0
 17 26  1  0  0  0  0
 17 31  2  0  0  0  0
 18 27  1  0  0  0  0
 18 32  2  0  0  0  0
 18 19  1  0  0  0  0
 19 44  1  0  0  0  0
 19 45  1  0  0  0  0
 19 25  1  0  0  0  0
 21 20  1  0  0  0  0
 20 46  1  0  0  0  0
 20 47  1  0  0  0  0
 20 27  1  0  0  0  0
 21 48  1  0  0  0  0
 21 26  1  0  0  0  0
 23 49  1  0  0  0  0
 24 50  1  0  0  0  0
 24 25  1  0  0  0  0
 26 51  1  0  0  0  0
 27 52  1  0  0  0  0
M  ZZC   1 c1
M  ZZC   2 c2
M  ZZC   3 c3
M  ZZC   4 c4
M  ZZC   5 c5
M  ZZC   6 c6
M  ZZC   7 c7
M  ZZC   8 c8
M  ZZC   9 c9
M  ZZC  10 c10
M  ZZC  11 c11
M  ZZC  12 c12
M  ZZC  13 c13
M  ZZC  14 c14
M  ZZC  15 c15
M  ZZC  16 c16
M  ZZC  17 c17
M  ZZC  18 c18
M  ZZC  19 c19
M  ZZC  20 c20
M  ZZC  21 c21
M  ZZC  22 n1
M  ZZC  23 n2
M  ZZC  24 n3
M  ZZC  25 n4
M  ZZC  26 n5
M  ZZC  27 n6
M  ZZC  28 o1
M  ZZC  29 o2
M  ZZC  30 o3
M  ZZC  31 o4
M  ZZC  32 o5
M  ZZC  33 h1
M  ZZC  34 h2
M  ZZC  35 h3
M  ZZC  36 h4
M  ZZC  37 h5
M  ZZC  38 h6
M  ZZC  39 h7
M  ZZC  40 h8
M  ZZC  41 h9
M  ZZC  42 h10
M  ZZC  43 h11
M  ZZC  44 h12
M  ZZC  45 h13
M  ZZC  46 h14
M  ZZC  47 h15
M  ZZC  48 h16
M  ZZC  49 h17
M  ZZC  50 h18
M  ZZC  51 h19
M  ZZC  52 h20
M  ZZM   1 37
M  ZZI   1 125
M  ZZM   2 37
M  ZZI   2 125
M  ZZM   3 37
M  ZZI   3 125
M  ZZM   4 37
M  ZZI   4 125
M  ZZM   5 37
M  ZZI   5 125
M  ZZM   6 37
M  ZZI   6 124
M  ZZM   7 2
M  ZZI   7 120
M  ZZM   8 2
M  ZZI   8 120
M  ZZM   9 2
M  ZZI   9 120
M  ZZM  10 3
M  ZZI  10 121
M  ZZM  11 2
M  ZZI  11 120
M  ZZM  12 3
M  ZZI  12 121
M  ZZM  13 3
M  ZZI  13 121
M  ZZM  14 3
M  ZZI  14 121
M  ZZM  15 2
M  ZZI  15 120
M  ZZM  16 2
M  ZZI  16 120
M  ZZM  17 3
M  ZZI  17 121
M  ZZM  18 3
M  ZZI  18 121
M  ZZM  19 1
M  ZZI  19 112
M  ZZM  20 1
M  ZZI  20 112
M  ZZM  21 1
M  ZZI  21 113
M  ZZM  22 9
M  ZZI  22 220
M  ZZM  23 10
M  ZZI  23 191
M  ZZM  24 10
M  ZZI  24 191
M  ZZM  25 10
M  ZZI  25 192
M  ZZM  26 10
M  ZZI  26 211
M  ZZM  27 10
M  ZZI  27 211
M  ZZM  28 7
M  ZZI  28 81
M  ZZM  29 7
M  ZZI  29 81
M  ZZM  30 7
M  ZZI  30 81
M  ZZM  31 7
M  ZZI  31 81
M  ZZM  32 7
M  ZZI  32 81
M  ZZM  33 5
M  ZZI  33 1
M  ZZM  34 5
M  ZZI  34 1
M  ZZM  35 5
M  ZZI  35 1
M  ZZM  36 5
M  ZZI  36 1
M  ZZM  37 5
M  ZZI  37 1
M  ZZM  38 5
M  ZZI  38 1
M  ZZM  39 5
M  ZZI  39 1
M  ZZM  40 5
M  ZZI  40 1
M  ZZM  41 5
M  ZZI  41 1
M  ZZM  42 5
M  ZZI  42 1
M  ZZM  43 5
M  ZZI  43 1
M  ZZM  44 5
M  ZZI  44 1
M  ZZM  45 5
M  ZZI  45 1
M  ZZM  46 5
M  ZZI  46 1
M  ZZM  47 5
M  ZZI  47 1
M  ZZM  48 5
M  ZZI  48 1
M  ZZM  49 28
M  ZZI  49 11
M  ZZM  50 28
M  ZZI  50 11
M  ZZM  51 28
M  ZZI  51 11
M  ZZM  52 28
M  ZZI  52 11
M  END
> <IX>
89

> <NAME>
99

> <Score>
-36.551953

> <Natom>
52

> <Nflex>
6

> <Hbond>
-7.805992

> <Hphob>
-5.5473

> <VwInt>
-41.681807

> <Dsolv>
19.418122

> <SolEl>
9.967034

> <Eintl>
6.423117

> <RecConf>
ND

> <projPath>
icm/

> <NAME_>
99

$$$$
78
  MOLSOFT 08042117183D

 58 61  0  0  1  0  0  0  0  0999 V2000
  -20.9403   14.9970  -22.1910 C   0  0  0  0  0  0  0  0  0  0  0  0
  -19.9124   14.2234  -22.6931 C   0  0  0  0  0  0  0  0  0  0  0  0
  -21.8641   15.5593  -23.0545 C   0  0  0  0  0  0  0  0  0  0  0  0
  -19.8117   14.0098  -24.0568 C   0  0  0  0  0  0  0  0  0  0  0  0
  -22.6798   15.9079  -25.3075 C   0  0  0  0  0  0  0  0  0  0  0  0
  -22.5572   15.7131  -26.6703 C   0  0  0  0  0  0  0  0  0  0  0  0
  -20.6055   14.3896  -26.3135 C   0  0  0  0  0  0  0  0  0  0  0  0
  -21.7617   15.3537  -24.4279 C   0  0  0  0  0  0  0  0  0  0  0  0
  -20.7244   14.5783  -24.9380 C   0  0  0  0  0  0  0  0  0  0  0  0
  -21.5000   14.9781  -27.2095 C   0  0  0  0  0  0  0  0  0  0  0  0
  -17.2066   21.0108  -27.3056 C   0  0  0  0  0  0  0  0  0  0  0  0
  -23.9472   19.4939  -32.2687 C   0  0  0  0  0  0  0  0  0  0  0  0
  -16.8076   22.7552  -25.9461 C   0  0  0  0  0  0  0  0  0  0  0  0
  -25.8060   20.3085  -33.2379 C   0  0  0  0  0  0  0  0  0  0  0  0
  -18.5088   20.8733  -26.9972 C   0  0  0  0  0  0  0  0  0  0  0  0
  -24.4149   18.2477  -32.0816 C   0  0  0  0  0  0  0  0  0  0  0  0
  -19.0358   21.8583  -26.0093 C   0  0  0  0  0  0  0  0  0  0  0  0
  -25.8282   18.0202  -32.5178 C   0  0  0  0  0  0  0  0  0  0  0  0
  -19.4037   19.8789  -27.5837 C   0  0  0  0  0  0  0  0  0  0  0  0
  -23.5911   17.2342  -31.4341 C   0  0  0  0  0  0  0  0  0  0  0  0
  -19.0047   18.6921  -28.0761 C   0  0  0  0  0  0  0  0  0  0  0  0
  -23.8841   15.9293  -31.2834 C   0  0  0  0  0  0  0  0  0  0  0  0
  -19.9466   17.6657  -28.6005 C   0  0  0  0  0  0  0  0  0  0  0  0
  -23.0101   14.9749  -30.5449 C   0  0  0  0  0  0  0  0  0  0  0  0
  -19.9111   15.1955  -29.2278 C   0  0  0  0  0  0  0  0  0  0  0  0
  -21.3191   14.8097  -28.7130 C   0  0  2  0  0  0  0  0  0  0  0  0
  -16.3089   21.9032  -26.7807 N   0  0  0  0  0  0  0  0  0  0  0  0
  -24.6019   20.5542  -32.8394 N   0  0  0  0  0  0  0  0  0  0  0  0
  -18.1196   22.7690  -25.5605 N   0  0  0  0  0  0  0  0  0  0  0  0
  -26.4263   19.0991  -33.1014 N   0  0  0  0  0  0  0  0  0  0  0  0
  -19.3139   16.4447  -28.7528 N   0  0  0  0  0  0  0  0  0  0  0  0
  -22.3138   15.5338  -29.4915 N   0  0  0  0  0  0  0  0  0  0  0  0
  -20.1969   21.8514  -25.6302 O   0  0  0  0  0  0  0  0  0  0  0  0
  -26.4242   16.9674  -32.3619 O   0  0  0  0  0  0  0  0  0  0  0  0
  -21.1197   17.9125  -28.8391 O   0  0  0  0  0  0  0  0  0  0  0  0
  -22.9754   13.7921  -30.8522 O   0  0  0  0  0  0  0  0  0  0  0  0
  -21.0209   15.1629  -21.1213 H   0  0  0  0  0  0  0  0  0  0  0  0
  -19.1834   13.7853  -22.0184 H   0  0  0  0  0  0  0  0  0  0  0  0
  -22.6648   16.1663  -22.6433 H   0  0  0  0  0  0  0  0  0  0  0  0
  -19.0069   13.3906  -24.4311 H   0  0  0  0  0  0  0  0  0  0  0  0
  -23.5054   16.5094  -24.9411 H   0  0  0  0  0  0  0  0  0  0  0  0
  -23.3061   16.1693  -27.3087 H   0  0  0  0  0  0  0  0  0  0  0  0
  -19.7900   13.7819  -26.6948 H   0  0  0  0  0  0  0  0  0  0  0  0
  -16.7623   20.3613  -28.0464 H   0  0  0  0  0  0  0  0  0  0  0  0
  -22.9366   19.7348  -31.9527 H   0  0  0  0  0  0  0  0  0  0  0  0
  -16.1926   23.5384  -25.4725 H   0  0  0  0  0  0  0  0  0  0  0  0
  -26.4277   21.0796  -33.7220 H   0  0  0  0  0  0  0  0  0  0  0  0
  -20.4633   20.1191  -27.5720 H   0  0  0  0  0  0  0  0  0  0  0  0
  -22.6473   17.6058  -31.0487 H   0  0  0  0  0  0  0  0  0  0  0  0
  -17.9634   18.4155  -28.0856 H   0  0  0  0  0  0  0  0  0  0  0  0
  -24.7667   15.4859  -31.7234 H   0  0  0  0  0  0  0  0  0  0  0  0
  -19.1959   14.4121  -28.9556 H   0  0  0  0  0  0  0  0  0  0  0  0
  -19.9104   15.2464  -30.3194 H   0  0  0  0  0  0  0  0  0  0  0  0
  -21.4679   13.7462  -28.9327 H   0  0  0  0  0  0  0  0  0  0  0  0
  -18.4420   23.4618  -24.8966 H   0  0  0  0  0  0  0  0  0  0  0  0
  -27.3742   18.9776  -33.4321 H   0  0  0  0  0  0  0  0  0  0  0  0
  -18.3048   16.4321  -28.6538 H   0  0  0  0  0  0  0  0  0  0  0  0
  -22.3966   16.5276  -29.2942 H   0  0  0  0  0  0  0  0  0  0  0  0
  1 37  1  0  0  0  0
  1  2  1  0  0  0  0
  1  3  2  0  0  0  0
  2 38  1  0  0  0  0
  2  4  2  0  0  0  0
  3  8  1  0  0  0  0
  3 39  1  0  0  0  0
  4 40  1  0  0  0  0
  4  9  1  0  0  0  0
  5  6  2  0  0  0  0
  5 41  1  0  0  0  0
  5  8  1  0  0  0  0
  6 10  1  0  0  0  0
  6 42  1  0  0  0  0
  7  9  1  0  0  0  0
  7 43  1  0  0  0  0
  7 10  2  0  0  0  0
  8  9  2  0  0  0  0
 26 10  1  0  0  0  0
 11 15  2  0  0  0  0
 11 44  1  0  0  0  0
 11 27  1  0  0  0  0
 12 16  2  0  0  0  0
 12 45  1  0  0  0  0
 12 28  1  0  0  0  0
 13 27  2  0  0  0  0
 13 46  1  0  0  0  0
 13 29  1  0  0  0  0
 14 28  2  0  0  0  0
 14 47  1  0  0  0  0
 14 30  1  0  0  0  0
 15 19  1  0  0  0  0
 15 17  1  0  0  0  0
 16 20  1  0  0  0  0
 16 18  1  0  0  0  0
 17 29  1  0  0  0  0
 17 33  2  0  0  0  0
 18 30  1  0  0  0  0
 18 34  2  0  0  0  0
 19 21  2  0  0  0  0
 19 48  1  0  0  0  0
 20 22  2  0  0  0  0
 20 49  1  0  0  0  0
 21 23  1  0  0  0  0
 21 50  1  0  0  0  0
 22 24  1  0  0  0  0
 22 51  1  0  0  0  0
 23 31  1  0  0  0  0
 23 35  2  0  0  0  0
 24 32  1  0  0  0  0
 24 36  2  0  0  0  0
 26 25  1  0  0  0  0
 25 52  1  0  0  0  0
 25 53  1  0  0  0  0
 25 31  1  0  0  0  0
 26 54  1  0  0  0  0
 26 32  1  0  0  0  0
 29 55  1  0  0  0  0
 30 56  1  0  0  0  0
 31 57  1  0  0  0  0
 32 58  1  0  0  0  0
M  ZZC   1 c1
M  ZZC   2 c2
M  ZZC   3 c3
M  ZZC   4 c4
M  ZZC   5 c5
M  ZZC   6 c6
M  ZZC   7 c7
M  ZZC   8 c8
M  ZZC   9 c9
M  ZZC  10 c10
M  ZZC  11 c11
M  ZZC  12 c12
M  ZZC  13 c13
M  ZZC  14 c14
M  ZZC  15 c15
M  ZZC  16 c16
M  ZZC  17 c17
M  ZZC  18 c18
M  ZZC  19 c19
M  ZZC  20 c20
M  ZZC  21 c21
M  ZZC  22 c22
M  ZZC  23 c23
M  ZZC  24 c24
M  ZZC  25 c25
M  ZZC  26 c26
M  ZZC  27 n1
M  ZZC  28 n2
M  ZZC  29 n3
M  ZZC  30 n4
M  ZZC  31 n5
M  ZZC  32 n6
M  ZZC  33 o1
M  ZZC  34 o2
M  ZZC  35 o3
M  ZZC  36 o4
M  ZZC  37 h1
M  ZZC  38 h2
M  ZZC  39 h3
M  ZZC  40 h4
M  ZZC  41 h5
M  ZZC  42 h6
M  ZZC  43 h7
M  ZZC  44 h8
M  ZZC  45 h9
M  ZZC  46 h10
M  ZZC  47 h11
M  ZZC  48 h12
M  ZZC  49 h13
M  ZZC  50 h14
M  ZZC  51 h15
M  ZZC  52 h16
M  ZZC  53 h17
M  ZZC  54 h18
M  ZZC  55 h19
M  ZZC  56 h20
M  ZZC  57 h21
M  ZZC  58 h22
M  ZZM   1 37
M  ZZI   1 125
M  ZZM   2 37
M  ZZI   2 125
M  ZZM   3 37
M  ZZI   3 125
M  ZZM   4 37
M  ZZI   4 125
M  ZZM   5 37
M  ZZI   5 125
M  ZZM   6 37
M  ZZI   6 125
M  ZZM   7 37
M  ZZI   7 125
M  ZZM   8 37
M  ZZI   8 124
M  ZZM   9 37
M  ZZI   9 124
M  ZZM  10 37
M  ZZI  10 124
M  ZZM  11 2
M  ZZI  11 120
M  ZZM  12 2
M  ZZI  12 120
M  ZZM  13 3
M  ZZI  13 121
M  ZZM  14 3
M  ZZI  14 121
M  ZZM  15 2
M  ZZI  15 120
M  ZZM  16 2
M  ZZI  16 120
M  ZZM  17 3
M  ZZI  17 121
M  ZZM  18 3
M  ZZI  18 121
M  ZZM  19 2
M  ZZI  19 120
M  ZZM  20 2
M  ZZI  20 120
M  ZZM  21 2
M  ZZI  21 120
M  ZZM  22 2
M  ZZI  22 120
M  ZZM  23 3
M  ZZI  23 121
M  ZZM  24 3
M  ZZI  24 121
M  ZZM  25 1
M  ZZI  25 112
M  ZZM  26 1
M  ZZI  26 113
M  ZZM  27 9
M  ZZI  27 220
M  ZZM  28 9
M  ZZI  28 220
M  ZZM  29 10
M  ZZI  29 191
M  ZZM  30 10
M  ZZI  30 191
M  ZZM  31 10
M  ZZI  31 211
M  ZZM  32 10
M  ZZI  32 211
M  ZZM  33 7
M  ZZI  33 81
M  ZZM  34 7
M  ZZI  34 81
M  ZZM  35 7
M  ZZI  35 81
M  ZZM  36 7
M  ZZI  36 81
M  ZZM  37 5
M  ZZI  37 1
M  ZZM  38 5
M  ZZI  38 1
M  ZZM  39 5
M  ZZI  39 1
M  ZZM  40 5
M  ZZI  40 1
M  ZZM  41 5
M  ZZI  41 1
M  ZZM  42 5
M  ZZI  42 1
M  ZZM  43 5
M  ZZI  43 1
M  ZZM  44 5
M  ZZI  44 1
M  ZZM  45 5
M  ZZI  45 1
M  ZZM  46 5
M  ZZI  46 1
M  ZZM  47 5
M  ZZI  47 1
M  ZZM  48 5
M  ZZI  48 1
M  ZZM  49 5
M  ZZI  49 1
M  ZZM  50 5
M  ZZI  50 1
M  ZZM  51 5
M  ZZI  51 1
M  ZZM  52 5
M  ZZI  52 1
M  ZZM  53 5
M  ZZI  53 1
M  ZZM  54 5
M  ZZI  54 1
M  ZZM  55 28
M  ZZI  55 11
M  ZZM  56 28
M  ZZI  56 11
M  ZZM  57 28
M  ZZI  57 11
M  ZZM  58 28
M  ZZI  58 11
M  END
> <IX>
90

> <NAME>
78

> <Score>
-39.373967

> <Natom>
58

> <Nflex>
4

> <Hbond>
-7.133506

> <Hphob>
-6.577128

> <VwInt>
-47.078057

> <Dsolv>
20.035989

> <SolEl>
12.485113

> <Eintl>
7.485617

> <RecConf>
ND

> <projPath>
icm/

> <NAME_>
78

$$$$
89
  MOLSOFT 08042117193D

 55 58  0  0  1  0  0  0  0  0999 V2000
  -18.2722   24.6521  -24.1326 C   0  0  0  0  0  0  0  0  0  0  0  0
  -19.5271   24.2054  -23.7684 C   0  0  0  0  0  0  0  0  0  0  0  0
  -17.5440   23.9622  -25.0839 C   0  0  0  0  0  0  0  0  0  0  0  0
  -20.0508   23.0618  -24.3449 C   0  0  0  0  0  0  0  0  0  0  0  0
  -17.3417   22.1278  -26.6336 C   0  0  0  0  0  0  0  0  0  0  0  0
  -17.8399   20.9576  -27.1734 C   0  0  0  0  0  0  0  0  0  0  0  0
  -19.8300   21.1931  -25.8701 C   0  0  0  0  0  0  0  0  0  0  0  0
  -18.0673   22.8224  -25.6786 C   0  0  0  0  0  0  0  0  0  0  0  0
  -19.3260   22.3601  -25.3036 C   0  0  0  0  0  0  0  0  0  0  0  0
  -19.0764   20.4515  -26.7801 C   0  0  0  0  0  0  0  0  0  0  0  0
  -19.9440   14.9013  -28.9709 C   0  0  0  0  0  0  0  0  0  0  0  0
  -22.2026   14.8756  -29.8597 C   0  0  0  0  0  0  0  0  0  0  0  0
  -21.9414   15.8747  -21.8391 C   0  0  0  0  0  0  0  0  0  0  0  0
  -19.8063   13.5986  -29.2108 C   0  0  0  0  0  0  0  0  0  0  0  0
  -22.2915   14.0732  -20.5410 C   0  0  0  0  0  0  0  0  0  0  0  0
  -21.1871   15.5549  -29.2983 C   0  0  0  0  0  0  0  0  0  0  0  0
  -20.8678   15.3788  -22.4790 C   0  0  0  0  0  0  0  0  0  0  0  0
  -22.0190   13.4360  -30.1862 C   0  0  0  0  0  0  0  0  0  0  0  0
  -20.4347   14.0136  -22.0598 C   0  0  0  0  0  0  0  0  0  0  0  0
  -20.0848   16.1425  -23.4367 C   0  0  0  0  0  0  0  0  0  0  0  0
  -20.5967   17.0067  -24.3334 C   0  0  0  0  0  0  0  0  0  0  0  0
  -21.4228   16.9792  -28.9141 C   0  0  0  0  0  0  0  0  0  0  0  0
  -19.6873   17.8236  -25.1840 C   0  0  0  0  0  0  0  0  0  0  0  0
  -20.2494   19.1518  -28.6453 C   0  0  0  0  0  0  0  0  0  0  0  0
  -19.5281   19.0934  -27.2868 C   0  0  2  0  0  0  0  0  0  0  0  0
  -22.6997   15.2498  -20.8846 N   0  0  0  0  0  0  0  0  0  0  0  0
  -20.8207   12.8860  -29.7915 N   0  0  0  0  0  0  0  0  0  0  0  0
  -21.1971   13.4564  -21.0761 N   0  0  0  0  0  0  0  0  0  0  0  0
  -20.3666   17.8164  -29.2196 N   0  0  0  0  0  0  0  0  0  0  0  0
  -20.3046   18.3558  -26.2911 N   0  0  0  0  0  0  0  0  0  0  0  0
  -22.8745   12.8029  -30.7839 O   0  0  0  0  0  0  0  0  0  0  0  0
  -19.4869   13.4253  -22.5568 O   0  0  0  0  0  0  0  0  0  0  0  0
  -22.4417   17.3265  -28.3335 O   0  0  0  0  0  0  0  0  0  0  0  0
  -18.5112   18.0121  -24.9164 O   0  0  0  0  0  0  0  0  0  0  0  0
  -17.8519   25.5352  -23.6621 H   0  0  0  0  0  0  0  0  0  0  0  0
  -20.0966   24.7448  -23.0185 H   0  0  0  0  0  0  0  0  0  0  0  0
  -16.5528   24.3129  -25.3482 H   0  0  0  0  0  0  0  0  0  0  0  0
  -21.0305   22.7177  -24.0281 H   0  0  0  0  0  0  0  0  0  0  0  0
  -16.3646   22.4824  -26.9454 H   0  0  0  0  0  0  0  0  0  0  0  0
  -17.2269   20.4188  -27.8875 H   0  0  0  0  0  0  0  0  0  0  0  0
  -20.8051   20.8302  -25.5588 H   0  0  0  0  0  0  0  0  0  0  0  0
  -19.1401   15.4589  -28.5031 H   0  0  0  0  0  0  0  0  0  0  0  0
  -23.1622   15.3209  -30.0978 H   0  0  0  0  0  0  0  0  0  0  0  0
  -22.2779   16.8828  -22.0586 H   0  0  0  0  0  0  0  0  0  0  0  0
  -18.8989   13.0583  -28.9643 H   0  0  0  0  0  0  0  0  0  0  0  0
  -22.8127   13.4747  -19.7757 H   0  0  0  0  0  0  0  0  0  0  0  0
  -19.0105   15.9880  -23.3835 H   0  0  0  0  0  0  0  0  0  0  0  0
  -21.6636   17.1652  -24.4430 H   0  0  0  0  0  0  0  0  0  0  0  0
  -21.2480   19.5912  -28.5421 H   0  0  0  0  0  0  0  0  0  0  0  0
  -19.6899   19.7588  -29.3642 H   0  0  0  0  0  0  0  0  0  0  0  0
  -18.6212   18.4942  -27.4299 H   0  0  0  0  0  0  0  0  0  0  0  0
  -20.6927   11.8978  -29.9686 H   0  0  0  0  0  0  0  0  0  0  0  0
  -20.9283   12.5373  -20.7481 H   0  0  0  0  0  0  0  0  0  0  0  0
  -19.5884   17.4543  -29.7612 H   0  0  0  0  0  0  0  0  0  0  0  0
  -21.2898   18.1791  -26.4663 H   0  0  0  0  0  0  0  0  0  0  0  0
  1 35  1  0  0  0  0
  1  2  1  0  0  0  0
  1  3  2  0  0  0  0
  2 36  1  0  0  0  0
  2  4  2  0  0  0  0
  3  8  1  0  0  0  0
  3 37  1  0  0  0  0
  4 38  1  0  0  0  0
  4  9  1  0  0  0  0
  5  6  2  0  0  0  0
  5 39  1  0  0  0  0
  5  8  1  0  0  0  0
  6 10  1  0  0  0  0
  6 40  1  0  0  0  0
  7  9  1  0  0  0  0
  7 41  1  0  0  0  0
  7 10  2  0  0  0  0
  8  9  2  0  0  0  0
 25 10  1  0  0  0  0
 11 16  1  0  0  0  0
 11 42  1  0  0  0  0
 11 14  2  0  0  0  0
 12 18  1  0  0  0  0
 12 43  1  0  0  0  0
 12 16  2  0  0  0  0
 13 17  2  0  0  0  0
 13 44  1  0  0  0  0
 13 26  1  0  0  0  0
 14 45  1  0  0  0  0
 14 27  1  0  0  0  0
 15 26  2  0  0  0  0
 15 46  1  0  0  0  0
 15 28  1  0  0  0  0
 16 22  1  0  0  0  0
 17 20  1  0  0  0  0
 17 19  1  0  0  0  0
 18 27  1  0  0  0  0
 18 31  2  0  0  0  0
 19 28  1  0  0  0  0
 19 32  2  0  0  0  0
 20 21  2  0  0  0  0
 20 47  1  0  0  0  0
 21 23  1  0  0  0  0
 21 48  1  0  0  0  0
 22 29  1  0  0  0  0
 22 33  2  0  0  0  0
 23 30  1  0  0  0  0
 23 34  2  0  0  0  0
 25 24  1  0  0  0  0
 24 49  1  0  0  0  0
 24 50  1  0  0  0  0
 24 29  1  0  0  0  0
 25 51  1  0  0  0  0
 25 30  1  0  0  0  0
 27 52  1  0  0  0  0
 28 53  1  0  0  0  0
 29 54  1  0  0  0  0
 30 55  1  0  0  0  0
M  ZZC   1 c1
M  ZZC   2 c2
M  ZZC   3 c3
M  ZZC   4 c4
M  ZZC   5 c5
M  ZZC   6 c6
M  ZZC   7 c7
M  ZZC   8 c8
M  ZZC   9 c9
M  ZZC  10 c10
M  ZZC  11 c11
M  ZZC  12 c12
M  ZZC  13 c13
M  ZZC  14 c14
M  ZZC  15 c15
M  ZZC  16 c16
M  ZZC  17 c17
M  ZZC  18 c18
M  ZZC  19 c19
M  ZZC  20 c20
M  ZZC  21 c21
M  ZZC  22 c22
M  ZZC  23 c23
M  ZZC  24 c24
M  ZZC  25 c25
M  ZZC  26 n1
M  ZZC  27 n2
M  ZZC  28 n3
M  ZZC  29 n4
M  ZZC  30 n5
M  ZZC  31 o1
M  ZZC  32 o2
M  ZZC  33 o3
M  ZZC  34 o4
M  ZZC  35 h1
M  ZZC  36 h2
M  ZZC  37 h3
M  ZZC  38 h4
M  ZZC  39 h5
M  ZZC  40 h6
M  ZZC  41 h7
M  ZZC  42 h8
M  ZZC  43 h9
M  ZZC  44 h10
M  ZZC  45 h11
M  ZZC  46 h12
M  ZZC  47 h13
M  ZZC  48 h14
M  ZZC  49 h15
M  ZZC  50 h16
M  ZZC  51 h17
M  ZZC  52 h18
M  ZZC  53 h19
M  ZZC  54 h20
M  ZZC  55 h21
M  ZZM   1 37
M  ZZI   1 125
M  ZZM   2 37
M  ZZI   2 125
M  ZZM   3 37
M  ZZI   3 125
M  ZZM   4 37
M  ZZI   4 125
M  ZZM   5 37
M  ZZI   5 125
M  ZZM   6 37
M  ZZI   6 125
M  ZZM   7 37
M  ZZI   7 125
M  ZZM   8 37
M  ZZI   8 124
M  ZZM   9 37
M  ZZI   9 124
M  ZZM  10 37
M  ZZI  10 124
M  ZZM  11 2
M  ZZI  11 120
M  ZZM  12 2
M  ZZI  12 120
M  ZZM  13 2
M  ZZI  13 120
M  ZZM  14 2
M  ZZI  14 120
M  ZZM  15 3
M  ZZI  15 121
M  ZZM  16 2
M  ZZI  16 120
M  ZZM  17 2
M  ZZI  17 120
M  ZZM  18 3
M  ZZI  18 121
M  ZZM  19 3
M  ZZI  19 121
M  ZZM  20 2
M  ZZI  20 120
M  ZZM  21 2
M  ZZI  21 120
M  ZZM  22 3
M  ZZI  22 121
M  ZZM  23 3
M  ZZI  23 121
M  ZZM  24 1
M  ZZI  24 112
M  ZZM  25 1
M  ZZI  25 113
M  ZZM  26 9
M  ZZI  26 220
M  ZZM  27 10
M  ZZI  27 191
M  ZZM  28 10
M  ZZI  28 191
M  ZZM  29 10
M  ZZI  29 211
M  ZZM  30 10
M  ZZI  30 211
M  ZZM  31 7
M  ZZI  31 81
M  ZZM  32 7
M  ZZI  32 81
M  ZZM  33 7
M  ZZI  33 81
M  ZZM  34 7
M  ZZI  34 81
M  ZZM  35 5
M  ZZI  35 1
M  ZZM  36 5
M  ZZI  36 1
M  ZZM  37 5
M  ZZI  37 1
M  ZZM  38 5
M  ZZI  38 1
M  ZZM  39 5
M  ZZI  39 1
M  ZZM  40 5
M  ZZI  40 1
M  ZZM  41 5
M  ZZI  41 1
M  ZZM  42 5
M  ZZI  42 1
M  ZZM  43 5
M  ZZI  43 1
M  ZZM  44 5
M  ZZI  44 1
M  ZZM  45 5
M  ZZI  45 1
M  ZZM  46 5
M  ZZI  46 1
M  ZZM  47 5
M  ZZI  47 1
M  ZZM  48 5
M  ZZI  48 1
M  ZZM  49 5
M  ZZI  49 1
M  ZZM  50 5
M  ZZI  50 1
M  ZZM  51 5
M  ZZI  51 1
M  ZZM  52 28
M  ZZI  52 11
M  ZZM  53 28
M  ZZI  53 11
M  ZZM  54 28
M  ZZI  54 11
M  ZZM  55 28
M  ZZI  55 11
M  END
> <IX>
91

> <NAME>
89

> <Score>
-39.234801

> <Natom>
55

> <Nflex>
4

> <Hbond>
-7.920368

> <Hphob>
-6.149072

> <VwInt>
-44.350778

> <Dsolv>
21.756752

> <SolEl>
11.317861

> <Eintl>
5.145057

> <RecConf>
ND

> <projPath>
icm/

> <NAME_>
89

$$$$
69
  MOLSOFT 08042117203D

 56 59  0  0  1  0  0  0  0  0999 V2000
  -21.4438   14.0584  -20.4339 C   0  0  0  0  0  0  0  0  0  0  0  0
  -20.1810   13.6326  -20.8208 C   0  0  0  0  0  0  0  0  0  0  0  0
  -22.1814   14.8969  -21.2516 C   0  0  0  0  0  0  0  0  0  0  0  0
  -19.6401   14.0300  -22.0332 C   0  0  0  0  0  0  0  0  0  0  0  0
  -21.6311   15.2885  -22.4598 C   0  0  0  0  0  0  0  0  0  0  0  0
  -20.3951   14.8536  -22.8510 C   0  0  0  0  0  0  0  0  0  0  0  0
  -23.0705   15.0575  -30.8246 C   0  0  0  0  0  0  0  0  0  0  0  0
  -22.4476   16.2062  -30.5366 C   0  0  0  0  0  0  0  0  0  0  0  0
  -19.1841   22.7134  -25.0164 C   0  0  0  0  0  0  0  0  0  0  0  0
  -17.5873   24.2438  -24.6752 C   0  0  0  0  0  0  0  0  0  0  0  0
  -18.3821   21.8306  -25.6350 C   0  0  0  0  0  0  0  0  0  0  0  0
  -22.4537   13.7462  -30.5355 C   0  0  0  0  0  0  0  0  0  0  0  0
  -21.1116   16.2380  -29.9057 C   0  0  0  0  0  0  0  0  0  0  0  0
  -16.9879   22.2775  -25.9136 C   0  0  0  0  0  0  0  0  0  0  0  0
  -18.8127   20.4895  -25.9717 C   0  0  0  0  0  0  0  0  0  0  0  0
  -19.4893   19.7337  -25.0889 C   0  0  0  0  0  0  0  0  0  0  0  0
  -19.9043   18.3476  -25.4059 C   0  0  0  0  0  0  0  0  0  0  0  0
  -19.5259   14.0609  -27.6865 C   0  0  0  0  0  0  0  0  0  0  0  0
  -22.2702   16.1453  -23.4942 C   0  0  0  0  0  0  0  0  0  0  0  0
  -20.0200   15.3799  -24.1983 C   0  0  2  0  0  0  0  0  0  0  0  0
  -21.1292   16.4150  -24.4785 C   0  0  2  0  0  0  0  0  0  0  0  0
  -19.2707   14.8246  -28.9697 C   0  0  0  0  0  0  0  0  0  0  0  0
  -19.9902   14.2983  -25.2771 C   0  0  0  0  0  0  0  0  0  0  0  0
  -18.8327   23.9391  -24.5277 N   0  0  0  0  0  0  0  0  0  0  0  0
  -16.6723   23.4746  -25.3405 N   0  0  0  0  0  0  0  0  0  0  0  0
  -21.2283   13.7863  -29.9238 N   0  0  0  0  0  0  0  0  0  0  0  0
  -20.5577   14.9946  -29.6375 N   0  0  0  0  0  0  0  0  0  0  0  0
  -20.6138   17.7725  -24.3717 N   0  0  0  0  0  0  0  0  0  0  0  0
  -19.6314   14.8555  -26.5684 N   0  0  0  0  0  0  0  0  0  0  0  0
  -23.0116   12.7101  -30.8554 O   0  0  0  0  0  0  0  0  0  0  0  0
  -20.5851   17.3137  -29.6597 O   0  0  0  0  0  0  0  0  0  0  0  0
  -16.1934   21.6186  -26.5692 O   0  0  0  0  0  0  0  0  0  0  0  0
  -19.6269   17.7964  -26.4615 O   0  0  0  0  0  0  0  0  0  0  0  0
  -19.7089   12.8528  -27.6845 O   0  0  0  0  0  0  0  0  0  0  0  0
  -21.8549   13.7313  -19.4841 H   0  0  0  0  0  0  0  0  0  0  0  0
  -19.6163   12.9847  -20.1607 H   0  0  0  0  0  0  0  0  0  0  0  0
  -23.1685   15.2317  -20.9492 H   0  0  0  0  0  0  0  0  0  0  0  0
  -18.6491   13.7023  -22.3322 H   0  0  0  0  0  0  0  0  0  0  0  0
  -24.0460   15.0537  -31.2931 H   0  0  0  0  0  0  0  0  0  0  0  0
  -22.9031   17.1634  -30.7605 H   0  0  0  0  0  0  0  0  0  0  0  0
  -20.2159   22.4502  -24.8074 H   0  0  0  0  0  0  0  0  0  0  0  0
  -17.1778   25.1753  -24.2619 H   0  0  0  0  0  0  0  0  0  0  0  0
  -18.5250   20.1034  -26.9462 H   0  0  0  0  0  0  0  0  0  0  0  0
  -19.7491   20.1087  -24.1051 H   0  0  0  0  0  0  0  0  0  0  0  0
  -23.0632   15.5774  -23.9896 H   0  0  0  0  0  0  0  0  0  0  0  0
  -22.6917   17.0605  -23.0643 H   0  0  0  0  0  0  0  0  0  0  0  0
  -19.0392   15.8630  -24.1296 H   0  0  0  0  0  0  0  0  0  0  0  0
  -21.5212   16.3328  -25.4991 H   0  0  0  0  0  0  0  0  0  0  0  0
  -18.8124   15.7981  -28.7697 H   0  0  0  0  0  0  0  0  0  0  0  0
  -18.5985   14.2475  -29.6139 H   0  0  0  0  0  0  0  0  0  0  0  0
  -19.2683   13.5148  -25.0303 H   0  0  0  0  0  0  0  0  0  0  0  0
  -20.9637   13.8053  -25.3818 H   0  0  0  0  0  0  0  0  0  0  0  0
  -15.7217   23.8022  -25.4342 H   0  0  0  0  0  0  0  0  0  0  0  0
  -20.7772   12.9093  -29.6719 H   0  0  0  0  0  0  0  0  0  0  0  0
  -20.7161   18.2640  -23.4901 H   0  0  0  0  0  0  0  0  0  0  0  0
  -19.5295   15.8666  -26.6635 H   0  0  0  0  0  0  0  0  0  0  0  0
  1 35  1  0  0  0  0
  1  2  1  0  0  0  0
  1  3  2  0  0  0  0
  2 36  1  0  0  0  0
  2  4  2  0  0  0  0
  3  5  1  0  0  0  0
  3 37  1  0  0  0  0
  4 38  1  0  0  0  0
  4  6  1  0  0  0  0
  5 19  1  0  0  0  0
  5  6  2  0  0  0  0
 20  6  1  0  0  0  0
  7  8  2  0  0  0  0
  7 39  1  0  0  0  0
  7 12  1  0  0  0  0
  8 13  1  0  0  0  0
  8 40  1  0  0  0  0
  9 24  1  0  0  0  0
  9 41  1  0  0  0  0
  9 11  2  0  0  0  0
 10 25  1  0  0  0  0
 10 42  1  0  0  0  0
 10 24  2  0  0  0  0
 11 15  1  0  0  0  0
 11 14  1  0  0  0  0
 12 30  2  0  0  0  0
 12 26  1  0  0  0  0
 13 27  1  0  0  0  0
 13 31  2  0  0  0  0
 14 32  2  0  0  0  0
 14 25  1  0  0  0  0
 15 16  2  0  0  0  0
 15 43  1  0  0  0  0
 16 17  1  0  0  0  0
 16 44  1  0  0  0  0
 17 28  1  0  0  0  0
 17 33  2  0  0  0  0
 18 29  1  0  0  0  0
 18 34  2  0  0  0  0
 18 22  1  0  0  0  0
 21 19  1  0  0  0  0
 19 45  1  0  0  0  0
 19 46  1  0  0  0  0
 20 47  1  0  0  0  0
 20 23  1  0  0  0  0
 20 21  1  0  0  0  0
 21 48  1  0  0  0  0
 21 28  1  0  0  0  0
 22 49  1  0  0  0  0
 22 50  1  0  0  0  0
 22 27  1  0  0  0  0
 23 51  1  0  0  0  0
 23 52  1  0  0  0  0
 23 29  1  0  0  0  0
 25 53  1  0  0  0  0
 26 54  1  0  0  0  0
 26 27  1  0  0  0  0
 28 55  1  0  0  0  0
 29 56  1  0  0  0  0
M  ZZC   1 c1
M  ZZC   2 c2
M  ZZC   3 c3
M  ZZC   4 c4
M  ZZC   5 c5
M  ZZC   6 c6
M  ZZC   7 c7
M  ZZC   8 c8
M  ZZC   9 c9
M  ZZC  10 c10
M  ZZC  11 c11
M  ZZC  12 c12
M  ZZC  13 c13
M  ZZC  14 c14
M  ZZC  15 c15
M  ZZC  16 c16
M  ZZC  17 c17
M  ZZC  18 c18
M  ZZC  19 c19
M  ZZC  20 c20
M  ZZC  21 c21
M  ZZC  22 c22
M  ZZC  23 c23
M  ZZC  24 n1
M  ZZC  25 n2
M  ZZC  26 n3
M  ZZC  27 n4
M  ZZC  28 n5
M  ZZC  29 n6
M  ZZC  30 o1
M  ZZC  31 o2
M  ZZC  32 o3
M  ZZC  33 o4
M  ZZC  34 o5
M  ZZC  35 h1
M  ZZC  36 h2
M  ZZC  37 h3
M  ZZC  38 h4
M  ZZC  39 h5
M  ZZC  40 h6
M  ZZC  41 h7
M  ZZC  42 h8
M  ZZC  43 h9
M  ZZC  44 h10
M  ZZC  45 h11
M  ZZC  46 h12
M  ZZC  47 h13
M  ZZC  48 h14
M  ZZC  49 h15
M  ZZC  50 h16
M  ZZC  51 h17
M  ZZC  52 h18
M  ZZC  53 h19
M  ZZC  54 h20
M  ZZC  55 h21
M  ZZC  56 h22
M  ZZM   1 37
M  ZZI   1 125
M  ZZM   2 37
M  ZZI   2 125
M  ZZM   3 37
M  ZZI   3 125
M  ZZM   4 37
M  ZZI   4 125
M  ZZM   5 37
M  ZZI   5 124
M  ZZM   6 37
M  ZZI   6 124
M  ZZM   7 2
M  ZZI   7 120
M  ZZM   8 2
M  ZZI   8 120
M  ZZM   9 2
M  ZZI   9 120
M  ZZM  10 3
M  ZZI  10 121
M  ZZM  11 2
M  ZZI  11 120
M  ZZM  12 3
M  ZZI  12 121
M  ZZM  13 3
M  ZZI  13 121
M  ZZM  14 3
M  ZZI  14 121
M  ZZM  15 2
M  ZZI  15 120
M  ZZM  16 2
M  ZZI  16 120
M  ZZM  17 3
M  ZZI  17 121
M  ZZM  18 3
M  ZZI  18 121
M  ZZM  19 1
M  ZZI  19 112
M  ZZM  20 1
M  ZZI  20 113
M  ZZM  21 1
M  ZZI  21 113
M  ZZM  22 1
M  ZZI  22 112
M  ZZM  23 1
M  ZZI  23 112
M  ZZM  24 9
M  ZZI  24 220
M  ZZM  25 10
M  ZZI  25 191
M  ZZM  26 10
M  ZZI  26 191
M  ZZM  27 10
M  ZZI  27 192
M  ZZM  28 10
M  ZZI  28 211
M  ZZM  29 10
M  ZZI  29 211
M  ZZM  30 7
M  ZZI  30 81
M  ZZM  31 7
M  ZZI  31 81
M  ZZM  32 7
M  ZZI  32 81
M  ZZM  33 7
M  ZZI  33 81
M  ZZM  34 7
M  ZZI  34 81
M  ZZM  35 5
M  ZZI  35 1
M  ZZM  36 5
M  ZZI  36 1
M  ZZM  37 5
M  ZZI  37 1
M  ZZM  38 5
M  ZZI  38 1
M  ZZM  39 5
M  ZZI  39 1
M  ZZM  40 5
M  ZZI  40 1
M  ZZM  41 5
M  ZZI  41 1
M  ZZM  42 5
M  ZZI  42 1
M  ZZM  43 5
M  ZZI  43 1
M  ZZM  44 5
M  ZZI  44 1
M  ZZM  45 5
M  ZZI  45 1
M  ZZM  46 5
M  ZZI  46 1
M  ZZM  47 5
M  ZZI  47 1
M  ZZM  48 5
M  ZZI  48 1
M  ZZM  49 5
M  ZZI  49 1
M  ZZM  50 5
M  ZZI  50 1
M  ZZM  51 5
M  ZZI  51 1
M  ZZM  52 5
M  ZZI  52 1
M  ZZM  53 28
M  ZZI  53 11
M  ZZM  54 28
M  ZZI  54 11
M  ZZM  55 28
M  ZZI  55 11
M  ZZM  56 28
M  ZZI  56 11
M  END
> <IX>
92

> <NAME>
69

> <Score>
-33.548598

> <Natom>
56

> <Nflex>
5

> <Hbond>
-4.769653

> <Hphob>
-5.759707

> <VwInt>
-44.243835

> <Dsolv>
17.454682

> <SolEl>
12.674452

> <Eintl>
3.608855

> <RecConf>
ND

> <projPath>
icm/

> <NAME_>
69

$$$$
82
  MOLSOFT 08042117223D

 55 58  0  0  1  0  0  0  0  0999 V2000
  -20.2749   13.6049  -21.2322 C   0  0  0  0  0  0  0  0  0  0  0  0
  -21.4832   14.0499  -21.7304 C   0  0  0  0  0  0  0  0  0  0  0  0
  -19.1011   13.9812  -21.8538 C   0  0  0  0  0  0  0  0  0  0  0  0
  -21.5156   14.8726  -22.8437 C   0  0  0  0  0  0  0  0  0  0  0  0
  -19.1311   14.8025  -22.9650 C   0  0  0  0  0  0  0  0  0  0  0  0
  -20.3396   15.2696  -23.4767 C   0  0  0  0  0  0  0  0  0  0  0  0
  -22.8081   13.3008  -29.3081 C   0  0  0  0  0  0  0  0  0  0  0  0
  -22.8764   14.2321  -30.2695 C   0  0  0  0  0  0  0  0  0  0  0  0
  -17.2083   23.3474  -25.3720 C   0  0  0  0  0  0  0  0  0  0  0  0
  -18.4771   23.4501  -24.9582 C   0  0  0  0  0  0  0  0  0  0  0  0
  -22.0471   13.5196  -28.1021 C   0  0  0  0  0  0  0  0  0  0  0  0
  -22.2112   16.4052  -31.0908 C   0  0  0  0  0  0  0  0  0  0  0  0
  -20.5925   16.7851  -28.8742 C   0  0  0  0  0  0  0  0  0  0  0  0
  -22.1492   15.4706  -30.1273 C   0  0  0  0  0  0  0  0  0  0  0  0
  -21.3332   15.6693  -28.9544 C   0  0  0  0  0  0  0  0  0  0  0  0
  -21.3411   14.6475  -27.9212 C   0  0  0  0  0  0  0  0  0  0  0  0
  -16.7748   22.2645  -26.2761 C   0  0  0  0  0  0  0  0  0  0  0  0
  -19.5093   22.4710  -25.3602 C   0  0  0  0  0  0  0  0  0  0  0  0
  -21.4325   17.6611  -30.9665 C   0  0  0  0  0  0  0  0  0  0  0  0
  -20.5835   14.7714  -26.6456 C   0  0  0  0  0  0  0  0  0  0  0  0
  -19.7047   19.2193  -25.7079 C   0  0  0  0  0  0  0  0  0  0  0  0
  -19.9395   20.3807  -26.6615 C   0  0  0  0  0  0  0  0  0  0  0  0
  -20.8572   17.6140  -24.1912 C   0  0  0  0  0  0  0  0  0  0  0  0
  -20.3507   16.2302  -24.6495 C   0  0  2  0  0  0  0  0  0  0  0  0
  -20.6424   17.7488  -29.8459 N   0  0  0  0  0  0  0  0  0  0  0  0
  -17.7592   21.4189  -26.7168 N   0  0  0  0  0  0  0  0  0  0  0  0
  -19.0877   21.4956  -26.2532 N   0  0  0  0  0  0  0  0  0  0  0  0
  -21.1037   15.7271  -25.7953 N   0  0  0  0  0  0  0  0  0  0  0  0
  -20.8649   18.6398  -25.2262 N   0  0  0  0  0  0  0  0  0  0  0  0
  -15.6040   22.1442  -26.5928 O   0  0  0  0  0  0  0  0  0  0  0  0
  -20.6413   22.5535  -24.9051 O   0  0  0  0  0  0  0  0  0  0  0  0
  -21.5039   18.5399  -31.8112 O   0  0  0  0  0  0  0  0  0  0  0  0
  -19.5902   14.0930  -26.4371 O   0  0  0  0  0  0  0  0  0  0  0  0
  -18.5856   18.8315  -25.4047 O   0  0  0  0  0  0  0  0  0  0  0  0
  -20.2486   12.9646  -20.3563 H   0  0  0  0  0  0  0  0  0  0  0  0
  -22.4071   13.7549  -21.2430 H   0  0  0  0  0  0  0  0  0  0  0  0
  -18.1500   13.6354  -21.4681 H   0  0  0  0  0  0  0  0  0  0  0  0
  -22.4749   15.2167  -23.2143 H   0  0  0  0  0  0  0  0  0  0  0  0
  -18.1903   15.0874  -23.4249 H   0  0  0  0  0  0  0  0  0  0  0  0
  -23.3251   12.3541  -29.4133 H   0  0  0  0  0  0  0  0  0  0  0  0
  -23.4567   14.0563  -31.1674 H   0  0  0  0  0  0  0  0  0  0  0  0
  -16.4495   24.0493  -25.0517 H   0  0  0  0  0  0  0  0  0  0  0  0
  -18.7889   24.2443  -24.2901 H   0  0  0  0  0  0  0  0  0  0  0  0
  -22.0703   12.7432  -27.3484 H   0  0  0  0  0  0  0  0  0  0  0  0
  -22.8026   16.2897  -31.9922 H   0  0  0  0  0  0  0  0  0  0  0  0
  -19.9249   17.0038  -28.0461 H   0  0  0  0  0  0  0  0  0  0  0  0
  -19.6933   20.0723  -27.6832 H   0  0  0  0  0  0  0  0  0  0  0  0
  -20.9874   20.6975  -26.6339 H   0  0  0  0  0  0  0  0  0  0  0  0
  -21.8869   17.5520  -23.8229 H   0  0  0  0  0  0  0  0  0  0  0  0
  -20.2411   17.9866  -23.3647 H   0  0  0  0  0  0  0  0  0  0  0  0
  -19.3239   16.3421  -25.0056 H   0  0  0  0  0  0  0  0  0  0  0  0
  -20.0792   18.5842  -29.7457 H   0  0  0  0  0  0  0  0  0  0  0  0
  -17.5015   20.6551  -27.3349 H   0  0  0  0  0  0  0  0  0  0  0  0
  -21.9815   16.1739  -26.0353 H   0  0  0  0  0  0  0  0  0  0  0  0
  -21.7653   19.0116  -25.5116 H   0  0  0  0  0  0  0  0  0  0  0  0
  1 35  1  0  0  0  0
  1  2  1  0  0  0  0
  1  3  2  0  0  0  0
  2 36  1  0  0  0  0
  2  4  2  0  0  0  0
  3  5  1  0  0  0  0
  3 37  1  0  0  0  0
  4 38  1  0  0  0  0
  4  6  1  0  0  0  0
  5  6  2  0  0  0  0
  5 39  1  0  0  0  0
 24  6  1  0  0  0  0
  7 11  1  0  0  0  0
  7 40  1  0  0  0  0
  7  8  2  0  0  0  0
  8 41  1  0  0  0  0
  8 14  1  0  0  0  0
  9 10  2  0  0  0  0
  9 42  1  0  0  0  0
  9 17  1  0  0  0  0
 10 18  1  0  0  0  0
 10 43  1  0  0  0  0
 11 16  2  0  0  0  0
 11 44  1  0  0  0  0
 12 14  2  0  0  0  0
 12 45  1  0  0  0  0
 12 19  1  0  0  0  0
 13 25  1  0  0  0  0
 13 15  2  0  0  0  0
 13 46  1  0  0  0  0
 14 15  1  0  0  0  0
 15 16  1  0  0  0  0
 16 20  1  0  0  0  0
 17 30  2  0  0  0  0
 17 26  1  0  0  0  0
 18 27  1  0  0  0  0
 18 31  2  0  0  0  0
 19 32  2  0  0  0  0
 19 25  1  0  0  0  0
 20 28  1  0  0  0  0
 20 33  2  0  0  0  0
 21 29  1  0  0  0  0
 21 34  2  0  0  0  0
 21 22  1  0  0  0  0
 22 47  1  0  0  0  0
 22 48  1  0  0  0  0
 22 27  1  0  0  0  0
 24 23  1  0  0  0  0
 23 49  1  0  0  0  0
 23 50  1  0  0  0  0
 23 29  1  0  0  0  0
 24 51  1  0  0  0  0
 24 28  1  0  0  0  0
 25 52  1  0  0  0  0
 26 53  1  0  0  0  0
 26 27  1  0  0  0  0
 28 54  1  0  0  0  0
 29 55  1  0  0  0  0
M  ZZC   1 c1
M  ZZC   2 c2
M  ZZC   3 c3
M  ZZC   4 c4
M  ZZC   5 c5
M  ZZC   6 c6
M  ZZC   7 c7
M  ZZC   8 c8
M  ZZC   9 c9
M  ZZC  10 c10
M  ZZC  11 c11
M  ZZC  12 c12
M  ZZC  13 c13
M  ZZC  14 c14
M  ZZC  15 c15
M  ZZC  16 c16
M  ZZC  17 c17
M  ZZC  18 c18
M  ZZC  19 c19
M  ZZC  20 c20
M  ZZC  21 c21
M  ZZC  22 c22
M  ZZC  23 c23
M  ZZC  24 c24
M  ZZC  25 n1
M  ZZC  26 n2
M  ZZC  27 n3
M  ZZC  28 n4
M  ZZC  29 n5
M  ZZC  30 o1
M  ZZC  31 o2
M  ZZC  32 o3
M  ZZC  33 o4
M  ZZC  34 o5
M  ZZC  35 h1
M  ZZC  36 h2
M  ZZC  37 h3
M  ZZC  38 h4
M  ZZC  39 h5
M  ZZC  40 h6
M  ZZC  41 h7
M  ZZC  42 h8
M  ZZC  43 h9
M  ZZC  44 h10
M  ZZC  45 h11
M  ZZC  46 h12
M  ZZC  47 h13
M  ZZC  48 h14
M  ZZC  49 h15
M  ZZC  50 h16
M  ZZC  51 h17
M  ZZC  52 h18
M  ZZC  53 h19
M  ZZC  54 h20
M  ZZC  55 h21
M  ZZM   1 37
M  ZZI   1 125
M  ZZM   2 37
M  ZZI   2 125
M  ZZM   3 37
M  ZZI   3 125
M  ZZM   4 37
M  ZZI   4 125
M  ZZM   5 37
M  ZZI   5 125
M  ZZM   6 37
M  ZZI   6 124
M  ZZM   7 2
M  ZZI   7 120
M  ZZM   8 2
M  ZZI   8 120
M  ZZM   9 2
M  ZZI   9 120
M  ZZM  10 2
M  ZZI  10 120
M  ZZM  11 2
M  ZZI  11 120
M  ZZM  12 2
M  ZZI  12 120
M  ZZM  13 2
M  ZZI  13 120
M  ZZM  14 2
M  ZZI  14 120
M  ZZM  15 2
M  ZZI  15 120
M  ZZM  16 2
M  ZZI  16 120
M  ZZM  17 3
M  ZZI  17 121
M  ZZM  18 3
M  ZZI  18 121
M  ZZM  19 3
M  ZZI  19 121
M  ZZM  20 3
M  ZZI  20 121
M  ZZM  21 3
M  ZZI  21 121
M  ZZM  22 1
M  ZZI  22 112
M  ZZM  23 1
M  ZZI  23 112
M  ZZM  24 1
M  ZZI  24 113
M  ZZM  25 10
M  ZZI  25 191
M  ZZM  26 10
M  ZZI  26 191
M  ZZM  27 10
M  ZZI  27 192
M  ZZM  28 10
M  ZZI  28 211
M  ZZM  29 10
M  ZZI  29 211
M  ZZM  30 7
M  ZZI  30 81
M  ZZM  31 7
M  ZZI  31 81
M  ZZM  32 7
M  ZZI  32 81
M  ZZM  33 7
M  ZZI  33 81
M  ZZM  34 7
M  ZZI  34 81
M  ZZM  35 5
M  ZZI  35 1
M  ZZM  36 5
M  ZZI  36 1
M  ZZM  37 5
M  ZZI  37 1
M  ZZM  38 5
M  ZZI  38 1
M  ZZM  39 5
M  ZZI  39 1
M  ZZM  40 5
M  ZZI  40 1
M  ZZM  41 5
M  ZZI  41 1
M  ZZM  42 5
M  ZZI  42 1
M  ZZM  43 5
M  ZZI  43 1
M  ZZM  44 5
M  ZZI  44 1
M  ZZM  45 5
M  ZZI  45 1
M  ZZM  46 5
M  ZZI  46 1
M  ZZM  47 5
M  ZZI  47 1
M  ZZM  48 5
M  ZZI  48 1
M  ZZM  49 5
M  ZZI  49 1
M  ZZM  50 5
M  ZZI  50 1
M  ZZM  51 5
M  ZZI  51 1
M  ZZM  52 28
M  ZZI  52 11
M  ZZM  53 28
M  ZZI  53 11
M  ZZM  54 28
M  ZZI  54 11
M  ZZM  55 28
M  ZZI  55 11
M  END
> <IX>
93

> <NAME>
82

> <Score>
-34.444447

> <Natom>
55

> <Nflex>
6

> <Hbond>
-4.565813

> <Hphob>
-6.296752

> <VwInt>
-45.39683

> <Dsolv>
18.200718

> <SolEl>
9.172028

> <Eintl>
5.697729

> <RecConf>
ND

> <projPath>
icm/

> <NAME_>
82

$$$$
87
  MOLSOFT 08042117233D

 57 60  0  0  1  0  0  0  0  0999 V2000
  -25.5565   17.9801  -32.3083 C   0  0  0  0  0  0  0  0  0  0  0  0
  -25.6783   18.7613  -31.1747 C   0  0  0  0  0  0  0  0  0  0  0  0
  -24.5231   17.0658  -32.4063 C   0  0  0  0  0  0  0  0  0  0  0  0
  -24.7738   18.6246  -30.1344 C   0  0  0  0  0  0  0  0  0  0  0  0
  -22.5887   15.9881  -31.4431 C   0  0  0  0  0  0  0  0  0  0  0  0
  -21.7014   15.8199  -30.3960 C   0  0  0  0  0  0  0  0  0  0  0  0
  -22.8511   17.5094  -29.1582 C   0  0  0  0  0  0  0  0  0  0  0  0
  -23.6184   16.9126  -31.3612 C   0  0  0  0  0  0  0  0  0  0  0  0
  -23.7446   17.6893  -30.2122 C   0  0  0  0  0  0  0  0  0  0  0  0
  -21.8138   16.5763  -29.2360 C   0  0  0  0  0  0  0  0  0  0  0  0
  -19.2109   22.3853  -25.6064 C   0  0  0  0  0  0  0  0  0  0  0  0
  -17.8084   23.8563  -24.6448 C   0  0  0  0  0  0  0  0  0  0  0  0
  -18.2673   21.7261  -26.2992 C   0  0  0  0  0  0  0  0  0  0  0  0
  -16.8779   22.2438  -26.1574 C   0  0  0  0  0  0  0  0  0  0  0  0
  -22.0993   14.7000  -20.4880 C   0  0  0  0  0  0  0  0  0  0  0  0
  -20.6560   13.6088  -21.8006 C   0  0  0  0  0  0  0  0  0  0  0  0
  -18.5458   20.6058  -27.1819 C   0  0  0  0  0  0  0  0  0  0  0  0
  -19.4465   19.6429  -26.9167 C   0  0  0  0  0  0  0  0  0  0  0  0
  -19.6740   18.5246  -27.8744 C   0  0  0  0  0  0  0  0  0  0  0  0
  -21.1009   15.4909  -24.7134 C   0  0  0  0  0  0  0  0  0  0  0  0
  -21.6815   15.6933  -21.5499 C   0  0  0  0  0  0  0  0  0  0  0  0
  -20.1242   15.3098  -23.5556 C   0  0  0  0  0  0  0  0  0  0  0  0
  -21.3934   15.2366  -27.1630 C   0  0  0  0  0  0  0  0  0  0  0  0
  -20.8439   16.3411  -28.0928 C   0  0  2  0  0  0  0  0  0  0  0  0
  -19.0287   23.4496  -24.7643 N   0  0  0  0  0  0  0  0  0  0  0  0
  -16.7471   23.3005  -25.3006 N   0  0  0  0  0  0  0  0  0  0  0  0
  -21.4305   13.5352  -20.7034 N   0  0  0  0  0  0  0  0  0  0  0  0
  -20.7845   14.8565  -22.3316 N   0  0  0  0  0  0  0  0  0  0  0  0
  -20.5361   17.5717  -27.3687 N   0  0  0  0  0  0  0  0  0  0  0  0
  -20.6167   15.0666  -25.9399 N   0  0  0  0  0  0  0  0  0  0  0  0
  -15.9228   21.7523  -26.7374 O   0  0  0  0  0  0  0  0  0  0  0  0
  -22.8990   14.9119  -19.5894 O   0  0  0  0  0  0  0  0  0  0  0  0
  -19.9593   12.7092  -22.2331 O   0  0  0  0  0  0  0  0  0  0  0  0
  -19.1509   18.4748  -28.9781 O   0  0  0  0  0  0  0  0  0  0  0  0
  -22.1945   16.0227  -24.5773 O   0  0  0  0  0  0  0  0  0  0  0  0
  -26.2695   18.0844  -33.1205 H   0  0  0  0  0  0  0  0  0  0  0  0
  -26.4881   19.4799  -31.0983 H   0  0  0  0  0  0  0  0  0  0  0  0
  -24.4318   16.4666  -33.3057 H   0  0  0  0  0  0  0  0  0  0  0  0
  -24.8929   19.2430  -29.2497 H   0  0  0  0  0  0  0  0  0  0  0  0
  -22.4696   15.3878  -32.3362 H   0  0  0  0  0  0  0  0  0  0  0  0
  -20.9068   15.0867  -30.4911 H   0  0  0  0  0  0  0  0  0  0  0  0
  -22.9707   18.1036  -28.2570 H   0  0  0  0  0  0  0  0  0  0  0  0
  -20.2466   22.0739  -25.6858 H   0  0  0  0  0  0  0  0  0  0  0  0
  -17.5381   24.7006  -23.9898 H   0  0  0  0  0  0  0  0  0  0  0  0
  -17.9555   20.5630  -28.0934 H   0  0  0  0  0  0  0  0  0  0  0  0
  -20.0257   19.6425  -26.0001 H   0  0  0  0  0  0  0  0  0  0  0  0
  -22.5460   16.0120  -22.1380 H   0  0  0  0  0  0  0  0  0  0  0  0
  -21.1305   16.5354  -21.1176 H   0  0  0  0  0  0  0  0  0  0  0  0
  -19.3499   14.5865  -23.8323 H   0  0  0  0  0  0  0  0  0  0  0  0
  -19.6370   16.2683  -23.3543 H   0  0  0  0  0  0  0  0  0  0  0  0
  -22.4346   15.4450  -26.8929 H   0  0  0  0  0  0  0  0  0  0  0  0
  -21.3937   14.2690  -27.6768 H   0  0  0  0  0  0  0  0  0  0  0  0
  -19.8873   16.0017  -28.5101 H   0  0  0  0  0  0  0  0  0  0  0  0
  -15.8203   23.6760  -25.1486 H   0  0  0  0  0  0  0  0  0  0  0  0
  -21.5043   12.7101  -20.1249 H   0  0  0  0  0  0  0  0  0  0  0  0
  -20.9746   17.7104  -26.4651 H   0  0  0  0  0  0  0  0  0  0  0  0
  -19.7193   14.5948  -25.9991 H   0  0  0  0  0  0  0  0  0  0  0  0
  1 36  1  0  0  0  0
  1  2  1  0  0  0  0
  1  3  2  0  0  0  0
  2 37  1  0  0  0  0
  2  4  2  0  0  0  0
  3  8  1  0  0  0  0
  3 38  1  0  0  0  0
  4 39  1  0  0  0  0
  4  9  1  0  0  0  0
  5  6  2  0  0  0  0
  5 40  1  0  0  0  0
  5  8  1  0  0  0  0
  6 10  1  0  0  0  0
  6 41  1  0  0  0  0
  7  9  1  0  0  0  0
  7 42  1  0  0  0  0
  7 10  2  0  0  0  0
  8  9  2  0  0  0  0
 24 10  1  0  0  0  0
 11 13  2  0  0  0  0
 11 43  1  0  0  0  0
 11 25  1  0  0  0  0
 12 25  2  0  0  0  0
 12 44  1  0  0  0  0
 12 26  1  0  0  0  0
 13 17  1  0  0  0  0
 13 14  1  0  0  0  0
 14 26  1  0  0  0  0
 14 31  2  0  0  0  0
 15 27  1  0  0  0  0
 15 32  2  0  0  0  0
 15 21  1  0  0  0  0
 16 28  1  0  0  0  0
 16 33  2  0  0  0  0
 16 27  1  0  0  0  0
 17 18  2  0  0  0  0
 17 45  1  0  0  0  0
 18 19  1  0  0  0  0
 18 46  1  0  0  0  0
 19 29  1  0  0  0  0
 19 34  2  0  0  0  0
 20 30  1  0  0  0  0
 20 35  2  0  0  0  0
 20 22  1  0  0  0  0
 21 47  1  0  0  0  0
 21 48  1  0  0  0  0
 21 28  1  0  0  0  0
 22 49  1  0  0  0  0
 22 50  1  0  0  0  0
 22 28  1  0  0  0  0
 24 23  1  0  0  0  0
 23 51  1  0  0  0  0
 23 52  1  0  0  0  0
 23 30  1  0  0  0  0
 24 53  1  0  0  0  0
 24 29  1  0  0  0  0
 26 54  1  0  0  0  0
 27 55  1  0  0  0  0
 29 56  1  0  0  0  0
 30 57  1  0  0  0  0
M  ZZC   1 c1
M  ZZC   2 c2
M  ZZC   3 c3
M  ZZC   4 c4
M  ZZC   5 c5
M  ZZC   6 c6
M  ZZC   7 c7
M  ZZC   8 c8
M  ZZC   9 c9
M  ZZC  10 c10
M  ZZC  11 c11
M  ZZC  12 c12
M  ZZC  13 c13
M  ZZC  14 c14
M  ZZC  15 c15
M  ZZC  16 c16
M  ZZC  17 c17
M  ZZC  18 c18
M  ZZC  19 c19
M  ZZC  20 c20
M  ZZC  21 c21
M  ZZC  22 c22
M  ZZC  23 c23
M  ZZC  24 c24
M  ZZC  25 n1
M  ZZC  26 n2
M  ZZC  27 n3
M  ZZC  28 n4
M  ZZC  29 n5
M  ZZC  30 n6
M  ZZC  31 o1
M  ZZC  32 o2
M  ZZC  33 o3
M  ZZC  34 o4
M  ZZC  35 o5
M  ZZC  36 h1
M  ZZC  37 h2
M  ZZC  38 h3
M  ZZC  39 h4
M  ZZC  40 h5
M  ZZC  41 h6
M  ZZC  42 h7
M  ZZC  43 h8
M  ZZC  44 h9
M  ZZC  45 h10
M  ZZC  46 h11
M  ZZC  47 h12
M  ZZC  48 h13
M  ZZC  49 h14
M  ZZC  50 h15
M  ZZC  51 h16
M  ZZC  52 h17
M  ZZC  53 h18
M  ZZC  54 h19
M  ZZC  55 h20
M  ZZC  56 h21
M  ZZC  57 h22
M  ZZM   1 37
M  ZZI   1 125
M  ZZM   2 37
M  ZZI   2 125
M  ZZM   3 37
M  ZZI   3 125
M  ZZM   4 37
M  ZZI   4 125
M  ZZM   5 37
M  ZZI   5 125
M  ZZM   6 37
M  ZZI   6 125
M  ZZM   7 37
M  ZZI   7 125
M  ZZM   8 37
M  ZZI   8 124
M  ZZM   9 37
M  ZZI   9 124
M  ZZM  10 37
M  ZZI  10 124
M  ZZM  11 2
M  ZZI  11 120
M  ZZM  12 3
M  ZZI  12 121
M  ZZM  13 2
M  ZZI  13 120
M  ZZM  14 3
M  ZZI  14 121
M  ZZM  15 3
M  ZZI  15 121
M  ZZM  16 3
M  ZZI  16 121
M  ZZM  17 2
M  ZZI  17 120
M  ZZM  18 2
M  ZZI  18 120
M  ZZM  19 3
M  ZZI  19 121
M  ZZM  20 3
M  ZZI  20 121
M  ZZM  21 1
M  ZZI  21 112
M  ZZM  22 1
M  ZZI  22 112
M  ZZM  23 1
M  ZZI  23 112
M  ZZM  24 1
M  ZZI  24 113
M  ZZM  25 9
M  ZZI  25 220
M  ZZM  26 10
M  ZZI  26 191
M  ZZM  27 10
M  ZZI  27 191
M  ZZM  28 10
M  ZZI  28 192
M  ZZM  29 10
M  ZZI  29 211
M  ZZM  30 10
M  ZZI  30 211
M  ZZM  31 7
M  ZZI  31 81
M  ZZM  32 7
M  ZZI  32 81
M  ZZM  33 7
M  ZZI  33 81
M  ZZM  34 7
M  ZZI  34 81
M  ZZM  35 7
M  ZZI  35 81
M  ZZM  36 5
M  ZZI  36 1
M  ZZM  37 5
M  ZZI  37 1
M  ZZM  38 5
M  ZZI  38 1
M  ZZM  39 5
M  ZZI  39 1
M  ZZM  40 5
M  ZZI  40 1
M  ZZM  41 5
M  ZZI  41 1
M  ZZM  42 5
M  ZZI  42 1
M  ZZM  43 5
M  ZZI  43 1
M  ZZM  44 5
M  ZZI  44 1
M  ZZM  45 5
M  ZZI  45 1
M  ZZM  46 5
M  ZZI  46 1
M  ZZM  47 5
M  ZZI  47 1
M  ZZM  48 5
M  ZZI  48 1
M  ZZM  49 5
M  ZZI  49 1
M  ZZM  50 5
M  ZZI  50 1
M  ZZM  51 5
M  ZZI  51 1
M  ZZM  52 5
M  ZZI  52 1
M  ZZM  53 5
M  ZZI  53 1
M  ZZM  54 28
M  ZZI  54 11
M  ZZM  55 28
M  ZZI  55 11
M  ZZM  56 28
M  ZZI  56 11
M  ZZM  57 28
M  ZZI  57 11
M  END
> <IX>
94

> <NAME>
87

> <Score>
-31.344678

> <Natom>
57

> <Nflex>
6

> <Hbond>
-6.005066

> <Hphob>
-5.919941

> <VwInt>
-43.666667

> <Dsolv>
22.995829

> <SolEl>
11.141742

> <Eintl>
5.467908

> <RecConf>
ND

> <projPath>
icm/

> <NAME_>
87

$$$$
98
  MOLSOFT 08042117253D

 53 55  0  0  1  0  0  0  0  0999 V2000
  -21.8140   12.7165  -29.5533 C   0  0  0  0  0  0  0  0  0  0  0  0
  -22.7653   13.7074  -29.4362 C   0  0  0  0  0  0  0  0  0  0  0  0
  -20.4803   13.0489  -29.4472 C   0  0  0  0  0  0  0  0  0  0  0  0
  -22.3820   15.0175  -29.2197 C   0  0  0  0  0  0  0  0  0  0  0  0
  -20.0845   14.3554  -29.2418 C   0  0  0  0  0  0  0  0  0  0  0  0
  -18.6497   22.6695  -25.6937 C   0  0  0  0  0  0  0  0  0  0  0  0
  -17.1669   21.3192  -26.9796 C   0  0  0  0  0  0  0  0  0  0  0  0
  -16.3083   22.9953  -25.7160 C   0  0  0  0  0  0  0  0  0  0  0  0
  -21.0322   15.3666  -29.1348 C   0  0  0  0  0  0  0  0  0  0  0  0
  -18.4626   21.6082  -26.5693 C   0  0  0  0  0  0  0  0  0  0  0  0
  -17.5546   23.3738  -25.2349 C   0  0  0  0  0  0  0  0  0  0  0  0
  -21.9607   21.9122  -33.4263 C   0  0  0  0  0  0  0  0  0  0  0  0
  -23.1838   23.7986  -33.3379 C   0  0  0  0  0  0  0  0  0  0  0  0
  -21.6938   21.8791  -32.1124 C   0  0  0  0  0  0  0  0  0  0  0  0
  -22.2485   22.9771  -31.2828 C   0  0  0  0  0  0  0  0  0  0  0  0
  -20.9158   20.8481  -31.4704 C   0  0  0  0  0  0  0  0  0  0  0  0
  -21.2980   19.5618  -31.4071 C   0  0  0  0  0  0  0  0  0  0  0  0
  -20.4738   18.6690  -30.5613 C   0  0  0  0  0  0  0  0  0  0  0  0
  -19.6190   19.3476  -26.8158 C   0  0  0  0  0  0  0  0  0  0  0  0
  -19.6391   20.8390  -27.0982 C   0  0  0  0  0  0  0  0  0  0  0  0
  -20.8932   17.2969  -27.5168 C   0  0  0  0  0  0  0  0  0  0  0  0
  -20.5866   16.7984  -28.9454 C   0  0  2  0  0  0  0  0  0  0  0  0
  -16.0759   21.9815  -26.5694 N   0  0  0  0  0  0  0  0  0  0  0  0
  -22.7301   22.8405  -34.0794 N   0  0  0  0  0  0  0  0  0  0  0  0
  -22.9625   23.9058  -31.9887 N   0  0  0  0  0  0  0  0  0  0  0  0
  -17.7289   24.4979  -24.4104 N   0  0  0  0  0  0  0  0  0  0  0  0
  -21.1919   17.6588  -29.9622 N   0  0  0  0  0  0  0  0  0  0  0  0
  -20.7125   18.7332  -27.3928 N   0  0  0  0  0  0  0  0  0  0  0  0
  -22.0823   23.0283  -30.0705 O   0  0  0  0  0  0  0  0  0  0  0  0
  -19.2848   18.8700  -30.3855 O   0  0  0  0  0  0  0  0  0  0  0  0
  -18.7462   18.7805  -26.1701 O   0  0  0  0  0  0  0  0  0  0  0  0
  -22.1122   11.6880  -29.7275 H   0  0  0  0  0  0  0  0  0  0  0  0
  -23.8157   13.4580  -29.5170 H   0  0  0  0  0  0  0  0  0  0  0  0
  -19.7318   12.2783  -29.5342 H   0  0  0  0  0  0  0  0  0  0  0  0
  -23.1571   15.7712  -29.1249 H   0  0  0  0  0  0  0  0  0  0  0  0
  -19.0229   14.5787  -29.1790 H   0  0  0  0  0  0  0  0  0  0  0  0
  -19.6470   22.9581  -25.3766 H   0  0  0  0  0  0  0  0  0  0  0  0
  -16.9726   20.5155  -27.6828 H   0  0  0  0  0  0  0  0  0  0  0  0
  -15.4228   23.5271  -25.3959 H   0  0  0  0  0  0  0  0  0  0  0  0
  -21.5288   21.1517  -34.0670 H   0  0  0  0  0  0  0  0  0  0  0  0
  -23.8028   24.6098  -33.7550 H   0  0  0  0  0  0  0  0  0  0  0  0
  -20.0293   21.1920  -30.9441 H   0  0  0  0  0  0  0  0  0  0  0  0
  -22.2034   19.1785  -31.8649 H   0  0  0  0  0  0  0  0  0  0  0  0
  -20.5662   21.2404  -26.6737 H   0  0  0  0  0  0  0  0  0  0  0  0
  -19.6941   20.9888  -28.1828 H   0  0  0  0  0  0  0  0  0  0  0  0
  -21.9373   17.1067  -27.2460 H   0  0  0  0  0  0  0  0  0  0  0  0
  -20.2650   16.7755  -26.7864 H   0  0  0  0  0  0  0  0  0  0  0  0
  -19.5023   16.8587  -29.0938 H   0  0  0  0  0  0  0  0  0  0  0  0
  -23.3523   24.6833  -31.4716 H   0  0  0  0  0  0  0  0  0  0  0  0
  -16.9081   24.9360  -23.9945 H   0  0  0  0  0  0  0  0  0  0  0  0
  -18.6237   24.6332  -23.9445 H   0  0  0  0  0  0  0  0  0  0  0  0
  -22.1760   17.5529  -30.1778 H   0  0  0  0  0  0  0  0  0  0  0  0
  -21.4107   19.3157  -27.8432 H   0  0  0  0  0  0  0  0  0  0  0  0
  1 32  1  0  0  0  0
  1  2  1  0  0  0  0
  1  3  2  0  0  0  0
  2 33  1  0  0  0  0
  2  4  2  0  0  0  0
  3  5  1  0  0  0  0
  3 34  1  0  0  0  0
  4 35  1  0  0  0  0
  4  9  1  0  0  0  0
  5  9  2  0  0  0  0
  5 36  1  0  0  0  0
  6 10  1  0  0  0  0
  6 37  1  0  0  0  0
  6 11  2  0  0  0  0
  7 23  1  0  0  0  0
  7 38  1  0  0  0  0
  7 10  2  0  0  0  0
  8 11  1  0  0  0  0
  8 39  1  0  0  0  0
  8 23  2  0  0  0  0
 22  9  1  0  0  0  0
 10 20  1  0  0  0  0
 11 26  1  0  0  0  0
 12 14  2  0  0  0  0
 12 40  1  0  0  0  0
 12 24  1  0  0  0  0
 13 24  2  0  0  0  0
 13 41  1  0  0  0  0
 13 25  1  0  0  0  0
 14 16  1  0  0  0  0
 14 15  1  0  0  0  0
 15 25  1  0  0  0  0
 15 29  2  0  0  0  0
 16 17  2  0  0  0  0
 16 42  1  0  0  0  0
 17 18  1  0  0  0  0
 17 43  1  0  0  0  0
 18 27  1  0  0  0  0
 18 30  2  0  0  0  0
 19 28  1  0  0  0  0
 19 31  2  0  0  0  0
 19 20  1  0  0  0  0
 20 44  1  0  0  0  0
 20 45  1  0  0  0  0
 22 21  1  0  0  0  0
 21 46  1  0  0  0  0
 21 47  1  0  0  0  0
 21 28  1  0  0  0  0
 22 48  1  0  0  0  0
 22 27  1  0  0  0  0
 25 49  1  0  0  0  0
 26 50  1  0  0  0  0
 26 51  1  0  0  0  0
 27 52  1  0  0  0  0
 28 53  1  0  0  0  0
M  ZZC   1 c1
M  ZZC   2 c2
M  ZZC   3 c3
M  ZZC   4 c4
M  ZZC   5 c5
M  ZZC   6 c6
M  ZZC   7 c7
M  ZZC   8 c8
M  ZZC   9 c9
M  ZZC  10 c10
M  ZZC  11 c11
M  ZZC  12 c12
M  ZZC  13 c13
M  ZZC  14 c14
M  ZZC  15 c15
M  ZZC  16 c16
M  ZZC  17 c17
M  ZZC  18 c18
M  ZZC  19 c19
M  ZZC  20 c20
M  ZZC  21 c21
M  ZZC  22 c22
M  ZZC  23 n1
M  ZZC  24 n2
M  ZZC  25 n3
M  ZZC  26 n4
M  ZZC  27 n5
M  ZZC  28 n6
M  ZZC  29 o1
M  ZZC  30 o2
M  ZZC  31 o3
M  ZZC  32 h1
M  ZZC  33 h2
M  ZZC  34 h3
M  ZZC  35 h4
M  ZZC  36 h5
M  ZZC  37 h6
M  ZZC  38 h7
M  ZZC  39 h8
M  ZZC  40 h9
M  ZZC  41 h10
M  ZZC  42 h11
M  ZZC  43 h12
M  ZZC  44 h13
M  ZZC  45 h14
M  ZZC  46 h15
M  ZZC  47 h16
M  ZZC  48 h17
M  ZZC  49 h18
M  ZZC  50 h19
M  ZZC  51 h20
M  ZZC  52 h21
M  ZZC  53 h22
M  ZZM   1 37
M  ZZI   1 125
M  ZZM   2 37
M  ZZI   2 125
M  ZZM   3 37
M  ZZI   3 125
M  ZZM   4 37
M  ZZI   4 125
M  ZZM   5 37
M  ZZI   5 125
M  ZZM   6 37
M  ZZI   6 125
M  ZZM   7 37
M  ZZI   7 125
M  ZZM   8 37
M  ZZI   8 125
M  ZZM   9 37
M  ZZI   9 124
M  ZZM  10 37
M  ZZI  10 124
M  ZZM  11 37
M  ZZI  11 124
M  ZZM  12 2
M  ZZI  12 120
M  ZZM  13 3
M  ZZI  13 121
M  ZZM  14 2
M  ZZI  14 120
M  ZZM  15 3
M  ZZI  15 121
M  ZZM  16 2
M  ZZI  16 120
M  ZZM  17 2
M  ZZI  17 120
M  ZZM  18 3
M  ZZI  18 121
M  ZZM  19 3
M  ZZI  19 121
M  ZZM  20 1
M  ZZI  20 112
M  ZZM  21 1
M  ZZI  21 112
M  ZZM  22 1
M  ZZI  22 113
M  ZZM  23 38
M  ZZI  23 223
M  ZZM  24 9
M  ZZI  24 220
M  ZZM  25 10
M  ZZI  25 191
M  ZZM  26 40
M  ZZI  26 224
M  ZZM  27 10
M  ZZI  27 211
M  ZZM  28 10
M  ZZI  28 211
M  ZZM  29 7
M  ZZI  29 81
M  ZZM  30 7
M  ZZI  30 81
M  ZZM  31 7
M  ZZI  31 81
M  ZZM  32 5
M  ZZI  32 1
M  ZZM  33 5
M  ZZI  33 1
M  ZZM  34 5
M  ZZI  34 1
M  ZZM  35 5
M  ZZI  35 1
M  ZZM  36 5
M  ZZI  36 1
M  ZZM  37 5
M  ZZI  37 1
M  ZZM  38 5
M  ZZI  38 1
M  ZZM  39 5
M  ZZI  39 1
M  ZZM  40 5
M  ZZI  40 1
M  ZZM  41 5
M  ZZI  41 1
M  ZZM  42 5
M  ZZI  42 1
M  ZZM  43 5
M  ZZI  43 1
M  ZZM  44 5
M  ZZI  44 1
M  ZZM  45 5
M  ZZI  45 1
M  ZZM  46 5
M  ZZI  46 1
M  ZZM  47 5
M  ZZI  47 1
M  ZZM  48 5
M  ZZI  48 1
M  ZZM  49 28
M  ZZI  49 11
M  ZZM  50 28
M  ZZI  50 11
M  ZZM  51 28
M  ZZI  51 11
M  ZZM  52 28
M  ZZI  52 11
M  ZZM  53 28
M  ZZI  53 11
M  END
> <IX>
95

> <NAME>
98

> <Score>
-33.082568

> <Natom>
53

> <Nflex>
6

> <Hbond>
-8.574387

> <Hphob>
-6.185704

> <VwInt>
-38.021022

> <Dsolv>
20.06748

> <SolEl>
10.119852

> <Eintl>
9.07727

> <RecConf>
ND

> <projPath>
icm/

> <NAME_>
98

$$$$
93
  MOLSOFT 08042116493D

 57 60  0  0  1  0  0  0  0  0999 V2000
  -25.3209   17.7493  -32.4038 C   0  0  0  0  0  0  0  0  0  0  0  0
  -24.5128   18.8764  -32.4520 C   0  0  0  0  0  0  0  0  0  0  0  0
  -24.8880   16.6062  -31.7530 C   0  0  0  0  0  0  0  0  0  0  0  0
  -23.2611   18.8712  -31.8553 C   0  0  0  0  0  0  0  0  0  0  0  0
  -23.6393   16.6128  -31.1525 C   0  0  0  0  0  0  0  0  0  0  0  0
  -22.8394   17.7219  -31.2035 C   0  0  0  0  0  0  0  0  0  0  0  0
  -20.1008   13.6184  -24.1253 C   0  0  0  0  0  0  0  0  0  0  0  0
  -19.5463   22.0105  -25.9289 C   0  0  0  0  0  0  0  0  0  0  0  0
  -20.9409   14.4765  -24.7297 C   0  0  0  0  0  0  0  0  0  0  0  0
  -18.5769   21.4578  -26.6745 C   0  0  0  0  0  0  0  0  0  0  0  0
  -21.8579   15.2256  -23.8240 C   0  0  0  0  0  0  0  0  0  0  0  0
  -17.1955   22.0059  -26.4427 C   0  0  0  0  0  0  0  0  0  0  0  0
  -20.7888   14.0431  -22.0248 C   0  0  0  0  0  0  0  0  0  0  0  0
  -18.1202   23.6474  -24.8978 C   0  0  0  0  0  0  0  0  0  0  0  0
  -21.0789   14.6372  -26.1685 C   0  0  0  0  0  0  0  0  0  0  0  0
  -18.8063   20.4303  -27.6841 C   0  0  0  0  0  0  0  0  0  0  0  0
  -20.1887   14.2644  -27.1069 C   0  0  0  0  0  0  0  0  0  0  0  0
  -19.9844   19.8527  -27.9980 C   0  0  0  0  0  0  0  0  0  0  0  0
  -20.4999   14.4382  -28.5489 C   0  0  0  0  0  0  0  0  0  0  0  0
  -20.0518   18.9118  -29.1528 C   0  0  0  0  0  0  0  0  0  0  0  0
  -23.0111   15.5094  -30.3747 C   0  0  0  0  0  0  0  0  0  0  0  0
  -21.5237   17.5011  -30.5336 C   0  0  2  0  0  0  0  0  0  0  0  0
  -21.5653   15.9912  -30.1860 C   0  0  1  0  0  0  0  0  0  0  0  0
  -20.8077   13.8459  -20.5386 C   0  0  0  0  0  0  0  0  0  0  0  0
  -20.0005   13.3546  -22.7841 N   0  0  0  0  0  0  0  0  0  0  0  0
  -19.3304   23.0500  -25.0684 N   0  0  0  0  0  0  0  0  0  0  0  0
  -21.6839   14.9674  -22.4970 N   0  0  0  0  0  0  0  0  0  0  0  0
  -17.0994   23.0799  -25.5956 N   0  0  0  0  0  0  0  0  0  0  0  0
  -21.3091   18.3916  -29.3929 N   0  0  0  0  0  0  0  0  0  0  0  0
  -21.0664   15.6599  -28.8548 N   0  0  0  0  0  0  0  0  0  0  0  0
  -22.7156   15.9964  -24.2297 O   0  0  0  0  0  0  0  0  0  0  0  0
  -16.2051   21.5140  -26.9627 O   0  0  0  0  0  0  0  0  0  0  0  0
  -17.9714   24.6187  -24.1791 O   0  0  0  0  0  0  0  0  0  0  0  0
  -20.2351   13.5543  -29.3493 O   0  0  0  0  0  0  0  0  0  0  0  0
  -19.0804   18.6632  -29.8479 O   0  0  0  0  0  0  0  0  0  0  0  0
  -26.2960   17.7618  -32.8806 H   0  0  0  0  0  0  0  0  0  0  0  0
  -24.8616   19.7660  -32.9672 H   0  0  0  0  0  0  0  0  0  0  0  0
  -25.5219   15.7279  -31.7246 H   0  0  0  0  0  0  0  0  0  0  0  0
  -22.6229   19.7481  -31.9080 H   0  0  0  0  0  0  0  0  0  0  0  0
  -19.4328   13.0133  -24.7238 H   0  0  0  0  0  0  0  0  0  0  0  0
  -20.5805   21.6904  -25.9845 H   0  0  0  0  0  0  0  0  0  0  0  0
  -22.0207   15.0785  -26.4812 H   0  0  0  0  0  0  0  0  0  0  0  0
  -17.9251   20.1588  -28.2562 H   0  0  0  0  0  0  0  0  0  0  0  0
  -19.2589   13.7552  -26.8839 H   0  0  0  0  0  0  0  0  0  0  0  0
  -20.9101   20.0762  -27.4831 H   0  0  0  0  0  0  0  0  0  0  0  0
  -23.5298   15.3824  -29.4180 H   0  0  0  0  0  0  0  0  0  0  0  0
  -23.0467   14.5614  -30.9229 H   0  0  0  0  0  0  0  0  0  0  0  0
  -20.7334   17.6828  -31.2673 H   0  0  0  0  0  0  0  0  0  0  0  0
  -20.9410   15.4525  -30.9036 H   0  0  0  0  0  0  0  0  0  0  0  0
  -19.8315   13.5010  -20.1866 H   0  0  0  0  0  0  0  0  0  0  0  0
  -21.5652   13.0984  -20.2916 H   0  0  0  0  0  0  0  0  0  0  0  0
  -21.0801   14.7791  -20.0429 H   0  0  0  0  0  0  0  0  0  0  0  0
  -20.1085   23.4476  -24.5542 H   0  0  0  0  0  0  0  0  0  0  0  0
  -22.2874   15.4666  -21.8566 H   0  0  0  0  0  0  0  0  0  0  0  0
  -16.1839   23.4818  -25.4531 H   0  0  0  0  0  0  0  0  0  0  0  0
  -22.0994   18.6461  -28.8110 H   0  0  0  0  0  0  0  0  0  0  0  0
  -21.1773   16.3565  -28.1268 H   0  0  0  0  0  0  0  0  0  0  0  0
  1 36  1  0  0  0  0
  1  2  1  0  0  0  0
  1  3  2  0  0  0  0
  2 37  1  0  0  0  0
  2  4  2  0  0  0  0
  3  5  1  0  0  0  0
  3 38  1  0  0  0  0
  4 39  1  0  0  0  0
  4  6  1  0  0  0  0
  5 21  1  0  0  0  0
  5  6  2  0  0  0  0
 22  6  1  0  0  0  0
  7 25  1  0  0  0  0
  7 40  1  0  0  0  0
  7  9  2  0  0  0  0
  8 26  1  0  0  0  0
  8 41  1  0  0  0  0
  8 10  2  0  0  0  0
  9 15  1  0  0  0  0
  9 11  1  0  0  0  0
 10 16  1  0  0  0  0
 10 12  1  0  0  0  0
 11 31  2  0  0  0  0
 11 27  1  0  0  0  0
 12 32  2  0  0  0  0
 12 28  1  0  0  0  0
 13 27  1  0  0  0  0
 13 24  1  0  0  0  0
 13 25  2  0  0  0  0
 14 28  1  0  0  0  0
 14 33  2  0  0  0  0
 14 26  1  0  0  0  0
 15 17  2  0  0  0  0
 15 42  1  0  0  0  0
 16 18  2  0  0  0  0
 16 43  1  0  0  0  0
 17 19  1  0  0  0  0
 17 44  1  0  0  0  0
 18 20  1  0  0  0  0
 18 45  1  0  0  0  0
 19 30  1  0  0  0  0
 19 34  2  0  0  0  0
 20 29  1  0  0  0  0
 20 35  2  0  0  0  0
 23 21  1  0  0  0  0
 21 46  1  0  0  0  0
 21 47  1  0  0  0  0
 22 48  1  0  0  0  0
 22 29  1  0  0  0  0
 22 23  1  0  0  0  0
 23 49  1  0  0  0  0
 23 30  1  0  0  0  0
 24 50  1  0  0  0  0
 24 51  1  0  0  0  0
 24 52  1  0  0  0  0
 26 53  1  0  0  0  0
 27 54  1  0  0  0  0
 28 55  1  0  0  0  0
 29 56  1  0  0  0  0
 30 57  1  0  0  0  0
M  ZZC   1 c1
M  ZZC   2 c2
M  ZZC   3 c3
M  ZZC   4 c4
M  ZZC   5 c5
M  ZZC   6 c6
M  ZZC   7 c7
M  ZZC   8 c8
M  ZZC   9 c9
M  ZZC  10 c10
M  ZZC  11 c11
M  ZZC  12 c12
M  ZZC  13 c13
M  ZZC  14 c14
M  ZZC  15 c15
M  ZZC  16 c16
M  ZZC  17 c17
M  ZZC  18 c18
M  ZZC  19 c19
M  ZZC  20 c20
M  ZZC  21 c21
M  ZZC  22 c22
M  ZZC  23 c23
M  ZZC  24 c24
M  ZZC  25 n1
M  ZZC  26 n2
M  ZZC  27 n3
M  ZZC  28 n4
M  ZZC  29 n5
M  ZZC  30 n6
M  ZZC  31 o1
M  ZZC  32 o2
M  ZZC  33 o3
M  ZZC  34 o4
M  ZZC  35 o5
M  ZZC  36 h1
M  ZZC  37 h2
M  ZZC  38 h3
M  ZZC  39 h4
M  ZZC  40 h5
M  ZZC  41 h6
M  ZZC  42 h7
M  ZZC  43 h8
M  ZZC  44 h9
M  ZZC  45 h10
M  ZZC  46 h11
M  ZZC  47 h12
M  ZZC  48 h13
M  ZZC  49 h14
M  ZZC  50 h15
M  ZZC  51 h16
M  ZZC  52 h17
M  ZZC  53 h18
M  ZZC  54 h19
M  ZZC  55 h20
M  ZZC  56 h21
M  ZZC  57 h22
M  ZZM   1 37
M  ZZI   1 125
M  ZZM   2 37
M  ZZI   2 125
M  ZZM   3 37
M  ZZI   3 125
M  ZZM   4 37
M  ZZI   4 125
M  ZZM   5 37
M  ZZI   5 124
M  ZZM   6 37
M  ZZI   6 124
M  ZZM   7 2
M  ZZI   7 120
M  ZZM   8 2
M  ZZI   8 120
M  ZZM   9 2
M  ZZI   9 120
M  ZZM  10 2
M  ZZI  10 120
M  ZZM  11 3
M  ZZI  11 121
M  ZZM  12 3
M  ZZI  12 121
M  ZZM  13 3
M  ZZI  13 121
M  ZZM  14 3
M  ZZI  14 121
M  ZZM  15 2
M  ZZI  15 120
M  ZZM  16 2
M  ZZI  16 120
M  ZZM  17 2
M  ZZI  17 120
M  ZZM  18 2
M  ZZI  18 120
M  ZZM  19 3
M  ZZI  19 121
M  ZZM  20 3
M  ZZI  20 121
M  ZZM  21 1
M  ZZI  21 112
M  ZZM  22 1
M  ZZI  22 113
M  ZZM  23 1
M  ZZI  23 113
M  ZZM  24 1
M  ZZI  24 111
M  ZZM  25 9
M  ZZI  25 220
M  ZZM  26 10
M  ZZI  26 191
M  ZZM  27 10
M  ZZI  27 191
M  ZZM  28 10
M  ZZI  28 191
M  ZZM  29 10
M  ZZI  29 211
M  ZZM  30 10
M  ZZI  30 211
M  ZZM  31 7
M  ZZI  31 81
M  ZZM  32 7
M  ZZI  32 81
M  ZZM  33 7
M  ZZI  33 81
M  ZZM  34 7
M  ZZI  34 81
M  ZZM  35 7
M  ZZI  35 81
M  ZZM  36 5
M  ZZI  36 1
M  ZZM  37 5
M  ZZI  37 1
M  ZZM  38 5
M  ZZI  38 1
M  ZZM  39 5
M  ZZI  39 1
M  ZZM  40 5
M  ZZI  40 1
M  ZZM  41 5
M  ZZI  41 1
M  ZZM  42 5
M  ZZI  42 1
M  ZZM  43 5
M  ZZI  43 1
M  ZZM  44 5
M  ZZI  44 1
M  ZZM  45 5
M  ZZI  45 1
M  ZZM  46 5
M  ZZI  46 1
M  ZZM  47 5
M  ZZI  47 1
M  ZZM  48 5
M  ZZI  48 1
M  ZZM  49 5
M  ZZI  49 1
M  ZZM  50 5
M  ZZI  50 1
M  ZZM  51 5
M  ZZI  51 1
M  ZZM  52 5
M  ZZI  52 1
M  ZZM  53 28
M  ZZI  53 11
M  ZZM  54 28
M  ZZI  54 11
M  ZZM  55 28
M  ZZI  55 11
M  ZZM  56 28
M  ZZI  56 11
M  ZZM  57 28
M  ZZI  57 11
M  END
> <IX>
96

> <NAME>
93

> <Score>
-30.557805

> <Natom>
57

> <Nflex>
2

> <Hbond>
-5.505572

> <Hphob>
-6.689213

> <VwInt>
-43.260816

> <Dsolv>
22.562608

> <SolEl>
13.675084

> <Eintl>
6.610613

> <RecConf>
ND

> <projPath>
icm/

> <NAME_>
93

$$$$
92
  MOLSOFT 08042116523D

 59 62  0  0  1  0  0  0  0  0999 V2000
  -25.7913   12.4395  -18.8734 C   0  0  0  0  0  0  0  0  0  0  0  0
  -26.3823   13.4703  -19.5807 C   0  0  0  0  0  0  0  0  0  0  0  0
  -24.4130   12.3595  -18.7879 C   0  0  0  0  0  0  0  0  0  0  0  0
  -25.5966   14.4214  -20.2086 C   0  0  0  0  0  0  0  0  0  0  0  0
  -22.2331   13.2217  -19.3807 C   0  0  0  0  0  0  0  0  0  0  0  0
  -21.4438   14.1115  -20.0837 C   0  0  0  0  0  0  0  0  0  0  0  0
  -23.4057   15.2680  -20.7960 C   0  0  0  0  0  0  0  0  0  0  0  0
  -23.6166   13.3017  -19.4295 C   0  0  0  0  0  0  0  0  0  0  0  0
  -24.2085   14.3372  -20.1459 C   0  0  0  0  0  0  0  0  0  0  0  0
  -22.0138   15.1644  -20.7883 C   0  0  0  0  0  0  0  0  0  0  0  0
  -18.7023   22.7145  -24.5570 C   0  0  0  0  0  0  0  0  0  0  0  0
  -22.4600   13.9903  -27.6489 C   0  0  0  0  0  0  0  0  0  0  0  0
  -16.9984   23.2662  -25.9149 C   0  0  0  0  0  0  0  0  0  0  0  0
  -18.9231   21.5148  -25.1193 C   0  0  0  0  0  0  0  0  0  0  0  0
  -21.1689   13.8415  -27.3164 C   0  0  0  0  0  0  0  0  0  0  0  0
  -18.0861   21.1692  -26.2997 C   0  0  0  0  0  0  0  0  0  0  0  0
  -20.2747   13.3184  -28.3950 C   0  0  0  0  0  0  0  0  0  0  0  0
  -22.2108   13.0581  -29.8467 C   0  0  0  0  0  0  0  0  0  0  0  0
  -19.8936   20.5553  -24.6321 C   0  0  0  0  0  0  0  0  0  0  0  0
  -20.6606   14.0575  -25.9713 C   0  0  0  0  0  0  0  0  0  0  0  0
  -19.9911   20.2038  -23.3387 C   0  0  0  0  0  0  0  0  0  0  0  0
  -21.1606   14.9541  -25.1033 C   0  0  0  0  0  0  0  0  0  0  0  0
  -20.9339   19.1363  -22.9272 C   0  0  0  0  0  0  0  0  0  0  0  0
  -20.6900   14.9930  -23.6916 C   0  0  0  0  0  0  0  0  0  0  0  0
  -21.4368   17.5944  -21.0646 C   0  0  0  0  0  0  0  0  0  0  0  0
  -21.1393   16.1525  -21.5357 C   0  0  2  0  0  0  0  0  0  0  0  0
  -17.7434   23.6207  -24.9204 N   0  0  0  0  0  0  0  0  0  0  0  0
  -22.9575   13.6405  -28.8706 N   0  0  0  0  0  0  0  0  0  0  0  0
  -17.1461   22.1038  -26.6189 N   0  0  0  0  0  0  0  0  0  0  0  0
  -20.8862   12.9414  -29.5625 N   0  0  0  0  0  0  0  0  0  0  0  0
  -20.6116   18.6101  -21.6939 N   0  0  0  0  0  0  0  0  0  0  0  0
  -21.3213   15.9864  -22.9721 N   0  0  0  0  0  0  0  0  0  0  0  0
  -18.2173   20.1230  -26.9153 O   0  0  0  0  0  0  0  0  0  0  0  0
  -19.0661   13.2358  -28.2495 O   0  0  0  0  0  0  0  0  0  0  0  0
  -22.7101   12.6671  -30.8855 O   0  0  0  0  0  0  0  0  0  0  0  0
  -21.8716   18.7742  -23.6249 O   0  0  0  0  0  0  0  0  0  0  0  0
  -19.8703   14.2060  -23.2389 O   0  0  0  0  0  0  0  0  0  0  0  0
  -26.4084   11.6937  -18.3824 H   0  0  0  0  0  0  0  0  0  0  0  0
  -27.4640   13.5331  -19.6457 H   0  0  0  0  0  0  0  0  0  0  0  0
  -23.9655   11.5446  -18.2266 H   0  0  0  0  0  0  0  0  0  0  0  0
  -26.0806   15.2227  -20.7596 H   0  0  0  0  0  0  0  0  0  0  0  0
  -21.7484   12.4451  -18.8009 H   0  0  0  0  0  0  0  0  0  0  0  0
  -20.3672   13.9715  -20.0706 H   0  0  0  0  0  0  0  0  0  0  0  0
  -23.8796   16.0760  -21.3435 H   0  0  0  0  0  0  0  0  0  0  0  0
  -19.2947   23.0259  -23.7020 H   0  0  0  0  0  0  0  0  0  0  0  0
  -23.2036   14.3624  -26.9538 H   0  0  0  0  0  0  0  0  0  0  0  0
  -16.1699   23.8958  -26.2674 H   0  0  0  0  0  0  0  0  0  0  0  0
  -20.4963   20.0567  -25.3864 H   0  0  0  0  0  0  0  0  0  0  0  0
  -19.8546   13.3985  -25.6599 H   0  0  0  0  0  0  0  0  0  0  0  0
  -19.3787   20.6535  -22.5653 H   0  0  0  0  0  0  0  0  0  0  0  0
  -21.9595   15.6325  -25.3792 H   0  0  0  0  0  0  0  0  0  0  0  0
  -22.4798   17.8679  -21.2563 H   0  0  0  0  0  0  0  0  0  0  0  0
  -21.2753   17.6864  -19.9863 H   0  0  0  0  0  0  0  0  0  0  0  0
  -20.0855   15.9359  -21.3244 H   0  0  0  0  0  0  0  0  0  0  0  0
  -23.9413   13.7668  -29.0656 H   0  0  0  0  0  0  0  0  0  0  0  0
  -16.5537   21.9098  -27.4149 H   0  0  0  0  0  0  0  0  0  0  0  0
  -20.3030   12.5524  -30.2878 H   0  0  0  0  0  0  0  0  0  0  0  0
  -19.7718   18.9159  -21.2135 H   0  0  0  0  0  0  0  0  0  0  0  0
  -21.9554   16.6268  -23.4418 H   0  0  0  0  0  0  0  0  0  0  0  0
  1 38  1  0  0  0  0
  1  2  1  0  0  0  0
  1  3  2  0  0  0  0
  2 39  1  0  0  0  0
  2  4  2  0  0  0  0
  3  8  1  0  0  0  0
  3 40  1  0  0  0  0
  4 41  1  0  0  0  0
  4  9  1  0  0  0  0
  5  6  2  0  0  0  0
  5 42  1  0  0  0  0
  5  8  1  0  0  0  0
  6 10  1  0  0  0  0
  6 43  1  0  0  0  0
  7  9  1  0  0  0  0
  7 44  1  0  0  0  0
  7 10  2  0  0  0  0
  8  9  2  0  0  0  0
 26 10  1  0  0  0  0
 11 14  2  0  0  0  0
 11 45  1  0  0  0  0
 11 27  1  0  0  0  0
 12 15  2  0  0  0  0
 12 46  1  0  0  0  0
 12 28  1  0  0  0  0
 13 27  2  0  0  0  0
 13 47  1  0  0  0  0
 13 29  1  0  0  0  0
 14 19  1  0  0  0  0
 14 16  1  0  0  0  0
 15 20  1  0  0  0  0
 15 17  1  0  0  0  0
 16 29  1  0  0  0  0
 16 33  2  0  0  0  0
 17 30  1  0  0  0  0
 17 34  2  0  0  0  0
 18 28  1  0  0  0  0
 18 35  2  0  0  0  0
 18 30  1  0  0  0  0
 19 21  2  0  0  0  0
 19 48  1  0  0  0  0
 20 22  2  0  0  0  0
 20 49  1  0  0  0  0
 21 23  1  0  0  0  0
 21 50  1  0  0  0  0
 22 24  1  0  0  0  0
 22 51  1  0  0  0  0
 23 31  1  0  0  0  0
 23 36  2  0  0  0  0
 24 32  1  0  0  0  0
 24 37  2  0  0  0  0
 26 25  1  0  0  0  0
 25 52  1  0  0  0  0
 25 53  1  0  0  0  0
 25 31  1  0  0  0  0
 26 54  1  0  0  0  0
 26 32  1  0  0  0  0
 28 55  1  0  0  0  0
 29 56  1  0  0  0  0
 30 57  1  0  0  0  0
 31 58  1  0  0  0  0
 32 59  1  0  0  0  0
M  ZZC   1 c1
M  ZZC   2 c2
M  ZZC   3 c3
M  ZZC   4 c4
M  ZZC   5 c5
M  ZZC   6 c6
M  ZZC   7 c7
M  ZZC   8 c8
M  ZZC   9 c9
M  ZZC  10 c10
M  ZZC  11 c11
M  ZZC  12 c12
M  ZZC  13 c13
M  ZZC  14 c14
M  ZZC  15 c15
M  ZZC  16 c16
M  ZZC  17 c17
M  ZZC  18 c18
M  ZZC  19 c19
M  ZZC  20 c20
M  ZZC  21 c21
M  ZZC  22 c22
M  ZZC  23 c23
M  ZZC  24 c24
M  ZZC  25 c25
M  ZZC  26 c26
M  ZZC  27 n1
M  ZZC  28 n2
M  ZZC  29 n3
M  ZZC  30 n4
M  ZZC  31 n5
M  ZZC  32 n6
M  ZZC  33 o1
M  ZZC  34 o2
M  ZZC  35 o3
M  ZZC  36 o4
M  ZZC  37 o5
M  ZZC  38 h1
M  ZZC  39 h2
M  ZZC  40 h3
M  ZZC  41 h4
M  ZZC  42 h5
M  ZZC  43 h6
M  ZZC  44 h7
M  ZZC  45 h8
M  ZZC  46 h9
M  ZZC  47 h10
M  ZZC  48 h11
M  ZZC  49 h12
M  ZZC  50 h13
M  ZZC  51 h14
M  ZZC  52 h15
M  ZZC  53 h16
M  ZZC  54 h17
M  ZZC  55 h18
M  ZZC  56 h19
M  ZZC  57 h20
M  ZZC  58 h21
M  ZZC  59 h22
M  ZZM   1 37
M  ZZI   1 125
M  ZZM   2 37
M  ZZI   2 125
M  ZZM   3 37
M  ZZI   3 125
M  ZZM   4 37
M  ZZI   4 125
M  ZZM   5 37
M  ZZI   5 125
M  ZZM   6 37
M  ZZI   6 125
M  ZZM   7 37
M  ZZI   7 125
M  ZZM   8 37
M  ZZI   8 124
M  ZZM   9 37
M  ZZI   9 124
M  ZZM  10 37
M  ZZI  10 124
M  ZZM  11 2
M  ZZI  11 120
M  ZZM  12 2
M  ZZI  12 120
M  ZZM  13 3
M  ZZI  13 121
M  ZZM  14 2
M  ZZI  14 120
M  ZZM  15 2
M  ZZI  15 120
M  ZZM  16 3
M  ZZI  16 121
M  ZZM  17 3
M  ZZI  17 121
M  ZZM  18 3
M  ZZI  18 121
M  ZZM  19 2
M  ZZI  19 120
M  ZZM  20 2
M  ZZI  20 120
M  ZZM  21 2
M  ZZI  21 120
M  ZZM  22 2
M  ZZI  22 120
M  ZZM  23 3
M  ZZI  23 121
M  ZZM  24 3
M  ZZI  24 121
M  ZZM  25 1
M  ZZI  25 112
M  ZZM  26 1
M  ZZI  26 113
M  ZZM  27 9
M  ZZI  27 220
M  ZZM  28 10
M  ZZI  28 191
M  ZZM  29 10
M  ZZI  29 191
M  ZZM  30 10
M  ZZI  30 191
M  ZZM  31 10
M  ZZI  31 211
M  ZZM  32 10
M  ZZI  32 211
M  ZZM  33 7
M  ZZI  33 81
M  ZZM  34 7
M  ZZI  34 81
M  ZZM  35 7
M  ZZI  35 81
M  ZZM  36 7
M  ZZI  36 81
M  ZZM  37 7
M  ZZI  37 81
M  ZZM  38 5
M  ZZI  38 1
M  ZZM  39 5
M  ZZI  39 1
M  ZZM  40 5
M  ZZI  40 1
M  ZZM  41 5
M  ZZI  41 1
M  ZZM  42 5
M  ZZI  42 1
M  ZZM  43 5
M  ZZI  43 1
M  ZZM  44 5
M  ZZI  44 1
M  ZZM  45 5
M  ZZI  45 1
M  ZZM  46 5
M  ZZI  46 1
M  ZZM  47 5
M  ZZI  47 1
M  ZZM  48 5
M  ZZI  48 1
M  ZZM  49 5
M  ZZI  49 1
M  ZZM  50 5
M  ZZI  50 1
M  ZZM  51 5
M  ZZI  51 1
M  ZZM  52 5
M  ZZI  52 1
M  ZZM  53 5
M  ZZI  53 1
M  ZZM  54 5
M  ZZI  54 1
M  ZZM  55 28
M  ZZI  55 11
M  ZZM  56 28
M  ZZI  56 11
M  ZZM  57 28
M  ZZI  57 11
M  ZZM  58 28
M  ZZI  58 11
M  ZZM  59 28
M  ZZI  59 11
M  END
> <IX>
97

> <NAME>
92

> <Score>
-29.190243

> <Natom>
59

> <Nflex>
4

> <Hbond>
-3.832178

> <Hphob>
-5.456716

> <VwInt>
-44.163598

> <Dsolv>
21.826086

> <SolEl>
12.038304

> <Eintl>
2.683199

> <RecConf>
ND

> <projPath>
icm/

> <NAME_>
92

$$$$
85
  MOLSOFT 08042116553D

 59 62  0  0  1  0  0  0  0  0999 V2000
  -22.1148   12.8905  -29.8825 C   0  0  0  0  0  0  0  0  0  0  0  0
  -20.7541   12.8036  -29.6326 C   0  0  0  0  0  0  0  0  0  0  0  0
  -22.8039   14.0587  -29.6131 C   0  0  0  0  0  0  0  0  0  0  0  0
  -20.0536   13.8672  -29.0928 C   0  0  0  0  0  0  0  0  0  0  0  0
  -22.1052   15.1086  -29.0494 C   0  0  0  0  0  0  0  0  0  0  0  0
  -20.7616   15.0149  -28.7946 C   0  0  0  0  0  0  0  0  0  0  0  0
  -22.2099   15.4664  -21.0519 C   0  0  0  0  0  0  0  0  0  0  0  0
  -19.2087   22.4998  -25.7625 C   0  0  0  0  0  0  0  0  0  0  0  0
  -22.0777   13.7972  -19.5581 C   0  0  0  0  0  0  0  0  0  0  0  0
  -21.2070   15.0232  -21.8282 C   0  0  0  0  0  0  0  0  0  0  0  0
  -18.1272   22.0142  -26.3912 C   0  0  0  0  0  0  0  0  0  0  0  0
  -20.5518   13.7562  -21.4109 C   0  0  0  0  0  0  0  0  0  0  0  0
  -16.8177   22.5959  -25.9921 C   0  0  0  0  0  0  0  0  0  0  0  0
  -18.1060   24.0280  -24.5351 C   0  0  0  0  0  0  0  0  0  0  0  0
  -20.7613   15.7143  -23.0171 C   0  0  0  0  0  0  0  0  0  0  0  0
  -18.2052   20.9049  -27.3195 C   0  0  0  0  0  0  0  0  0  0  0  0
  -21.6105   16.0727  -23.9923 C   0  0  0  0  0  0  0  0  0  0  0  0
  -19.1686   20.8065  -28.2530 C   0  0  0  0  0  0  0  0  0  0  0  0
  -21.1071   16.7450  -25.2111 C   0  0  0  0  0  0  0  0  0  0  0  0
  -19.3595   19.6262  -29.1303 C   0  0  0  0  0  0  0  0  0  0  0  0
  -22.6382   16.4393  -28.6441 C   0  0  0  0  0  0  0  0  0  0  0  0
  -20.2436   16.2569  -28.1477 C   0  0  2  0  0  0  0  0  0  0  0  0
  -21.5618   16.8902  -27.6495 C   0  0  2  0  0  0  0  0  0  0  0  0
  -18.0446   25.1581  -23.5414 C   0  0  0  0  0  0  0  0  0  0  0  0
  -19.4884   17.1522  -29.1294 C   0  0  0  0  0  0  0  0  0  0  0  0
  -22.7019   14.8680  -19.9229 N   0  0  0  0  0  0  0  0  0  0  0  0
  -19.2494   23.5138  -24.8484 N   0  0  0  0  0  0  0  0  0  0  0  0
  -21.0184   13.2582  -20.2329 N   0  0  0  0  0  0  0  0  0  0  0  0
  -16.9117   23.6029  -25.0688 N   0  0  0  0  0  0  0  0  0  0  0  0
  -21.8819   16.4256  -26.3036 N   0  0  0  0  0  0  0  0  0  0  0  0
  -19.1442   18.4157  -28.5068 N   0  0  0  0  0  0  0  0  0  0  0  0
  -19.6979   13.1920  -22.0783 O   0  0  0  0  0  0  0  0  0  0  0  0
  -15.7584   22.1834  -26.4429 O   0  0  0  0  0  0  0  0  0  0  0  0
  -20.1146   17.4604  -25.2194 O   0  0  0  0  0  0  0  0  0  0  0  0
  -19.7498   19.7702  -30.2788 O   0  0  0  0  0  0  0  0  0  0  0  0
  -22.6407   12.0343  -30.2854 H   0  0  0  0  0  0  0  0  0  0  0  0
  -20.2358   11.8856  -29.8568 H   0  0  0  0  0  0  0  0  0  0  0  0
  -23.8639   14.1373  -29.8198 H   0  0  0  0  0  0  0  0  0  0  0  0
  -18.9897   13.7918  -28.8894 H   0  0  0  0  0  0  0  0  0  0  0  0
  -22.7144   16.3932  -21.3071 H   0  0  0  0  0  0  0  0  0  0  0  0
  -20.1812   22.0638  -25.9624 H   0  0  0  0  0  0  0  0  0  0  0  0
  -22.3672   13.2328  -18.6561 H   0  0  0  0  0  0  0  0  0  0  0  0
  -19.6926   15.8918  -23.1103 H   0  0  0  0  0  0  0  0  0  0  0  0
  -17.4470   20.1361  -27.2090 H   0  0  0  0  0  0  0  0  0  0  0  0
  -22.6714   15.8542  -23.9415 H   0  0  0  0  0  0  0  0  0  0  0  0
  -19.8827   21.6036  -28.4209 H   0  0  0  0  0  0  0  0  0  0  0  0
  -22.6831   17.0978  -29.5189 H   0  0  0  0  0  0  0  0  0  0  0  0
  -23.6292   16.3648  -28.1860 H   0  0  0  0  0  0  0  0  0  0  0  0
  -19.5839   15.9902  -27.3142 H   0  0  0  0  0  0  0  0  0  0  0  0
  -21.5194   17.9828  -27.5838 H   0  0  0  0  0  0  0  0  0  0  0  0
  -18.5263   24.8463  -22.6106 H   0  0  0  0  0  0  0  0  0  0  0  0
  -18.5956   26.0149  -23.9408 H   0  0  0  0  0  0  0  0  0  0  0  0
  -17.0162   25.4596  -23.3286 H   0  0  0  0  0  0  0  0  0  0  0  0
  -18.5547   16.6698  -29.4245 H   0  0  0  0  0  0  0  0  0  0  0  0
  -20.0659   17.3315  -30.0425 H   0  0  0  0  0  0  0  0  0  0  0  0
  -20.5930   12.4069  -19.8947 H   0  0  0  0  0  0  0  0  0  0  0  0
  -16.0465   24.0219  -24.7541 H   0  0  0  0  0  0  0  0  0  0  0  0
  -22.6661   15.7926  -26.1853 H   0  0  0  0  0  0  0  0  0  0  0  0
  -18.7987   18.3915  -27.5533 H   0  0  0  0  0  0  0  0  0  0  0  0
  1 36  1  0  0  0  0
  1  2  1  0  0  0  0
  1  3  2  0  0  0  0
  2 37  1  0  0  0  0
  2  4  2  0  0  0  0
  3  5  1  0  0  0  0
  3 38  1  0  0  0  0
  4 39  1  0  0  0  0
  4  6  1  0  0  0  0
  5 21  1  0  0  0  0
  5  6  2  0  0  0  0
 22  6  1  0  0  0  0
  7 26  1  0  0  0  0
  7 40  1  0  0  0  0
  7 10  2  0  0  0  0
  8 27  1  0  0  0  0
  8 41  1  0  0  0  0
  8 11  2  0  0  0  0
  9 28  1  0  0  0  0
  9 42  1  0  0  0  0
  9 26  2  0  0  0  0
 10 15  1  0  0  0  0
 10 12  1  0  0  0  0
 11 16  1  0  0  0  0
 11 13  1  0  0  0  0
 12 32  2  0  0  0  0
 12 28  1  0  0  0  0
 13 33  2  0  0  0  0
 13 29  1  0  0  0  0
 14 29  1  0  0  0  0
 14 24  1  0  0  0  0
 14 27  2  0  0  0  0
 15 17  2  0  0  0  0
 15 43  1  0  0  0  0
 16 18  2  0  0  0  0
 16 44  1  0  0  0  0
 17 19  1  0  0  0  0
 17 45  1  0  0  0  0
 18 20  1  0  0  0  0
 18 46  1  0  0  0  0
 19 30  1  0  0  0  0
 19 34  2  0  0  0  0
 20 31  1  0  0  0  0
 20 35  2  0  0  0  0
 23 21  1  0  0  0  0
 21 47  1  0  0  0  0
 21 48  1  0  0  0  0
 22 49  1  0  0  0  0
 22 25  1  0  0  0  0
 22 23  1  0  0  0  0
 23 50  1  0  0  0  0
 23 30  1  0  0  0  0
 24 51  1  0  0  0  0
 24 52  1  0  0  0  0
 24 53  1  0  0  0  0
 25 54  1  0  0  0  0
 25 55  1  0  0  0  0
 25 31  1  0  0  0  0
 28 56  1  0  0  0  0
 29 57  1  0  0  0  0
 30 58  1  0  0  0  0
 31 59  1  0  0  0  0
M  ZZC   1 c1
M  ZZC   2 c2
M  ZZC   3 c3
M  ZZC   4 c4
M  ZZC   5 c5
M  ZZC   6 c6
M  ZZC   7 c7
M  ZZC   8 c8
M  ZZC   9 c9
M  ZZC  10 c10
M  ZZC  11 c11
M  ZZC  12 c12
M  ZZC  13 c13
M  ZZC  14 c14
M  ZZC  15 c15
M  ZZC  16 c16
M  ZZC  17 c17
M  ZZC  18 c18
M  ZZC  19 c19
M  ZZC  20 c20
M  ZZC  21 c21
M  ZZC  22 c22
M  ZZC  23 c23
M  ZZC  24 c24
M  ZZC  25 c25
M  ZZC  26 n1
M  ZZC  27 n2
M  ZZC  28 n3
M  ZZC  29 n4
M  ZZC  30 n5
M  ZZC  31 n6
M  ZZC  32 o1
M  ZZC  33 o2
M  ZZC  34 o3
M  ZZC  35 o4
M  ZZC  36 h1
M  ZZC  37 h2
M  ZZC  38 h3
M  ZZC  39 h4
M  ZZC  40 h5
M  ZZC  41 h6
M  ZZC  42 h7
M  ZZC  43 h8
M  ZZC  44 h9
M  ZZC  45 h10
M  ZZC  46 h11
M  ZZC  47 h12
M  ZZC  48 h13
M  ZZC  49 h14
M  ZZC  50 h15
M  ZZC  51 h16
M  ZZC  52 h17
M  ZZC  53 h18
M  ZZC  54 h19
M  ZZC  55 h20
M  ZZC  56 h21
M  ZZC  57 h22
M  ZZC  58 h23
M  ZZC  59 h24
M  ZZM   1 37
M  ZZI   1 125
M  ZZM   2 37
M  ZZI   2 125
M  ZZM   3 37
M  ZZI   3 125
M  ZZM   4 37
M  ZZI   4 125
M  ZZM   5 37
M  ZZI   5 124
M  ZZM   6 37
M  ZZI   6 124
M  ZZM   7 2
M  ZZI   7 120
M  ZZM   8 2
M  ZZI   8 120
M  ZZM   9 3
M  ZZI   9 121
M  ZZM  10 2
M  ZZI  10 120
M  ZZM  11 2
M  ZZI  11 120
M  ZZM  12 3
M  ZZI  12 121
M  ZZM  13 3
M  ZZI  13 121
M  ZZM  14 3
M  ZZI  14 121
M  ZZM  15 2
M  ZZI  15 120
M  ZZM  16 2
M  ZZI  16 120
M  ZZM  17 2
M  ZZI  17 120
M  ZZM  18 2
M  ZZI  18 120
M  ZZM  19 3
M  ZZI  19 121
M  ZZM  20 3
M  ZZI  20 121
M  ZZM  21 1
M  ZZI  21 112
M  ZZM  22 1
M  ZZI  22 113
M  ZZM  23 1
M  ZZI  23 113
M  ZZM  24 1
M  ZZI  24 111
M  ZZM  25 1
M  ZZI  25 112
M  ZZM  26 9
M  ZZI  26 220
M  ZZM  27 9
M  ZZI  27 220
M  ZZM  28 10
M  ZZI  28 191
M  ZZM  29 10
M  ZZI  29 191
M  ZZM  30 10
M  ZZI  30 211
M  ZZM  31 10
M  ZZI  31 211
M  ZZM  32 7
M  ZZI  32 81
M  ZZM  33 7
M  ZZI  33 81
M  ZZM  34 7
M  ZZI  34 81
M  ZZM  35 7
M  ZZI  35 81
M  ZZM  36 5
M  ZZI  36 1
M  ZZM  37 5
M  ZZI  37 1
M  ZZM  38 5
M  ZZI  38 1
M  ZZM  39 5
M  ZZI  39 1
M  ZZM  40 5
M  ZZI  40 1
M  ZZM  41 5
M  ZZI  41 1
M  ZZM  42 5
M  ZZI  42 1
M  ZZM  43 5
M  ZZI  43 1
M  ZZM  44 5
M  ZZI  44 1
M  ZZM  45 5
M  ZZI  45 1
M  ZZM  46 5
M  ZZI  46 1
M  ZZM  47 5
M  ZZI  47 1
M  ZZM  48 5
M  ZZI  48 1
M  ZZM  49 5
M  ZZI  49 1
M  ZZM  50 5
M  ZZI  50 1
M  ZZM  51 5
M  ZZI  51 1
M  ZZM  52 5
M  ZZI  52 1
M  ZZM  53 5
M  ZZI  53 1
M  ZZM  54 5
M  ZZI  54 1
M  ZZM  55 5
M  ZZI  55 1
M  ZZM  56 28
M  ZZI  56 11
M  ZZM  57 28
M  ZZI  57 11
M  ZZM  58 28
M  ZZI  58 11
M  ZZM  59 28
M  ZZI  59 11
M  END
> <IX>
98

> <NAME>
85

> <Score>
-32.712041

> <Natom>
59

> <Nflex>
3

> <Hbond>
-6.020577

> <Hphob>
-6.371749

> <VwInt>
-44.033308

> <Dsolv>
19.935729

> <SolEl>
10.017691

> <Eintl>
12.431544

> <RecConf>
ND

> <projPath>
icm/

> <NAME_>
85

$$$$
86
  MOLSOFT 08042116583D

 59 62  0  0  1  0  0  0  0  0999 V2000
  -21.4690   12.7230  -29.7990 C   0  0  0  0  0  0  0  0  0  0  0  0
  -22.4894   12.7359  -28.8785 C   0  0  0  0  0  0  0  0  0  0  0  0
  -20.5074   13.7088  -29.7638 C   0  0  0  0  0  0  0  0  0  0  0  0
  -22.5170   13.6994  -27.8913 C   0  0  0  0  0  0  0  0  0  0  0  0
  -20.5738   14.7365  -28.8354 C   0  0  0  0  0  0  0  0  0  0  0  0
  -21.5601   14.7066  -27.8473 C   0  0  0  0  0  0  0  0  0  0  0  0
  -20.0854   20.7210  -32.0084 C   0  0  0  0  0  0  0  0  0  0  0  0
  -20.6419   19.6096  -32.5064 C   0  0  0  0  0  0  0  0  0  0  0  0
  -19.4899   21.9391  -25.8689 C   0  0  0  0  0  0  0  0  0  0  0  0
  -18.4205   21.4162  -26.4908 C   0  0  0  0  0  0  0  0  0  0  0  0
  -20.5286   21.3019  -30.7231 C   0  0  0  0  0  0  0  0  0  0  0  0
  -21.7456   18.9071  -31.8170 C   0  0  0  0  0  0  0  0  0  0  0  0
  -17.1204   22.1035  -26.2383 C   0  0  0  0  0  0  0  0  0  0  0  0
  -18.3710   23.5877  -24.8134 C   0  0  0  0  0  0  0  0  0  0  0  0
  -18.4952   20.2987  -27.4152 C   0  0  0  0  0  0  0  0  0  0  0  0
  -19.3618   19.2741  -27.3139 C   0  0  0  0  0  0  0  0  0  0  0  0
  -19.3575   18.2083  -28.3591 C   0  0  0  0  0  0  0  0  0  0  0  0
  -22.9416   18.6142  -28.4559 C   0  0  0  0  0  0  0  0  0  0  0  0
  -19.5797   15.8560  -28.9452 C   0  0  0  0  0  0  0  0  0  0  0  0
  -20.2738   16.5154  -26.6740 C   0  0  0  0  0  0  0  0  0  0  0  0
  -21.6021   15.7545  -26.7571 C   0  0  1  0  0  0  0  0  0  0  0  0
  -18.2838   24.7901  -23.9129 C   0  0  0  0  0  0  0  0  0  0  0  0
  -23.3217   18.9902  -29.8788 C   0  0  0  0  0  0  0  0  0  0  0  0
  -22.8205   16.6867  -26.8786 C   0  0  0  0  0  0  0  0  0  0  0  0
  -19.5086   23.0055  -25.0120 N   0  0  0  0  0  0  0  0  0  0  0  0
  -17.1972   23.1792  -25.3965 N   0  0  0  0  0  0  0  0  0  0  0  0
  -21.5688   20.6520  -30.1024 N   0  0  0  0  0  0  0  0  0  0  0  0
  -22.1719   19.4909  -30.6340 N   0  0  0  0  0  0  0  0  0  0  0  0
  -19.7888   16.9332  -27.9874 N   0  0  0  0  0  0  0  0  0  0  0  0
  -23.0105   17.2578  -28.2014 N   0  0  0  0  0  0  0  0  0  0  0  0
  -19.9835   22.2973  -30.2716 O   0  0  0  0  0  0  0  0  0  0  0  0
  -22.2320   17.9023  -32.3150 O   0  0  0  0  0  0  0  0  0  0  0  0
  -16.0712   21.7160  -26.7312 O   0  0  0  0  0  0  0  0  0  0  0  0
  -18.9653   18.4636  -29.4884 O   0  0  0  0  0  0  0  0  0  0  0  0
  -22.5862   19.4538  -27.6390 O   0  0  0  0  0  0  0  0  0  0  0  0
  -21.4335   11.9459  -30.5496 H   0  0  0  0  0  0  0  0  0  0  0  0
  -23.2526   11.9710  -28.9204 H   0  0  0  0  0  0  0  0  0  0  0  0
  -19.6967   13.6873  -30.4804 H   0  0  0  0  0  0  0  0  0  0  0  0
  -23.3059   13.6653  -27.1524 H   0  0  0  0  0  0  0  0  0  0  0  0
  -19.2802   21.2287  -32.5250 H   0  0  0  0  0  0  0  0  0  0  0  0
  -20.3065   19.1823  -33.4438 H   0  0  0  0  0  0  0  0  0  0  0  0
  -20.4715   21.5080  -26.0352 H   0  0  0  0  0  0  0  0  0  0  0  0
  -17.7803   20.3252  -28.2311 H   0  0  0  0  0  0  0  0  0  0  0  0
  -20.0827   19.2193  -26.5105 H   0  0  0  0  0  0  0  0  0  0  0  0
  -18.5751   15.4577  -28.7777 H   0  0  0  0  0  0  0  0  0  0  0  0
  -19.6060   16.2630  -29.9606 H   0  0  0  0  0  0  0  0  0  0  0  0
  -20.3557   17.3496  -25.9772 H   0  0  0  0  0  0  0  0  0  0  0  0
  -19.5042   15.8552  -26.2595 H   0  0  0  0  0  0  0  0  0  0  0  0
  -21.7039   15.2282  -25.8003 H   0  0  0  0  0  0  0  0  0  0  0  0
  -18.8149   24.5858  -22.9790 H   0  0  0  0  0  0  0  0  0  0  0  0
  -18.7662   25.6391  -24.4058 H   0  0  0  0  0  0  0  0  0  0  0  0
  -17.2455   25.0477  -23.6867 H   0  0  0  0  0  0  0  0  0  0  0  0
  -23.7649   18.1336  -30.3972 H   0  0  0  0  0  0  0  0  0  0  0  0
  -24.0833   19.7764  -29.8416 H   0  0  0  0  0  0  0  0  0  0  0  0
  -23.7374   16.1256  -26.6688 H   0  0  0  0  0  0  0  0  0  0  0  0
  -22.7707   17.4862  -26.1325 H   0  0  0  0  0  0  0  0  0  0  0  0
  -16.3348   23.6685  -25.1917 H   0  0  0  0  0  0  0  0  0  0  0  0
  -21.8828   20.9784  -29.1920 H   0  0  0  0  0  0  0  0  0  0  0  0
  -23.2815   16.6228  -28.9464 H   0  0  0  0  0  0  0  0  0  0  0  0
  1 36  1  0  0  0  0
  1  2  1  0  0  0  0
  1  3  2  0  0  0  0
  2 37  1  0  0  0  0
  2  4  2  0  0  0  0
  3  5  1  0  0  0  0
  3 38  1  0  0  0  0
  4 39  1  0  0  0  0
  4  6  1  0  0  0  0
  5 19  1  0  0  0  0
  5  6  2  0  0  0  0
 21  6  1  0  0  0  0
  7  8  2  0  0  0  0
  7 40  1  0  0  0  0
  7 11  1  0  0  0  0
  8 12  1  0  0  0  0
  8 41  1  0  0  0  0
  9 25  1  0  0  0  0
  9 42  1  0  0  0  0
  9 10  2  0  0  0  0
 10 15  1  0  0  0  0
 10 13  1  0  0  0  0
 11 31  2  0  0  0  0
 11 27  1  0  0  0  0
 12 28  1  0  0  0  0
 12 32  2  0  0  0  0
 13 33  2  0  0  0  0
 13 26  1  0  0  0  0
 14 26  1  0  0  0  0
 14 22  1  0  0  0  0
 14 25  2  0  0  0  0
 15 16  2  0  0  0  0
 15 43  1  0  0  0  0
 16 17  1  0  0  0  0
 16 44  1  0  0  0  0
 17 29  1  0  0  0  0
 17 34  2  0  0  0  0
 18 30  1  0  0  0  0
 18 35  2  0  0  0  0
 18 23  1  0  0  0  0
 19 29  1  0  0  0  0
 19 45  1  0  0  0  0
 19 46  1  0  0  0  0
 21 20  1  0  0  0  0
 20 47  1  0  0  0  0
 20 48  1  0  0  0  0
 20 29  1  0  0  0  0
 21 49  1  0  0  0  0
 21 24  1  0  0  0  0
 22 50  1  0  0  0  0
 22 51  1  0  0  0  0
 22 52  1  0  0  0  0
 23 53  1  0  0  0  0
 23 54  1  0  0  0  0
 23 28  1  0  0  0  0
 24 55  1  0  0  0  0
 24 56  1  0  0  0  0
 24 30  1  0  0  0  0
 26 57  1  0  0  0  0
 27 58  1  0  0  0  0
 27 28  1  0  0  0  0
 30 59  1  0  0  0  0
M  ZZC   1 c1
M  ZZC   2 c2
M  ZZC   3 c3
M  ZZC   4 c4
M  ZZC   5 c5
M  ZZC   6 c6
M  ZZC   7 c7
M  ZZC   8 c8
M  ZZC   9 c9
M  ZZC  10 c10
M  ZZC  11 c11
M  ZZC  12 c12
M  ZZC  13 c13
M  ZZC  14 c14
M  ZZC  15 c15
M  ZZC  16 c16
M  ZZC  17 c17
M  ZZC  18 c18
M  ZZC  19 c19
M  ZZC  20 c20
M  ZZC  21 c21
M  ZZC  22 c22
M  ZZC  23 c23
M  ZZC  24 c24
M  ZZC  25 n1
M  ZZC  26 n2
M  ZZC  27 n3
M  ZZC  28 n4
M  ZZC  29 n5
M  ZZC  30 n6
M  ZZC  31 o1
M  ZZC  32 o2
M  ZZC  33 o3
M  ZZC  34 o4
M  ZZC  35 o5
M  ZZC  36 h1
M  ZZC  37 h2
M  ZZC  38 h3
M  ZZC  39 h4
M  ZZC  40 h5
M  ZZC  41 h6
M  ZZC  42 h7
M  ZZC  43 h8
M  ZZC  44 h9
M  ZZC  45 h10
M  ZZC  46 h11
M  ZZC  47 h12
M  ZZC  48 h13
M  ZZC  49 h14
M  ZZC  50 h15
M  ZZC  51 h16
M  ZZC  52 h17
M  ZZC  53 h18
M  ZZC  54 h19
M  ZZC  55 h20
M  ZZC  56 h21
M  ZZC  57 h22
M  ZZC  58 h23
M  ZZC  59 h24
M  ZZM   1 37
M  ZZI   1 125
M  ZZM   2 37
M  ZZI   2 125
M  ZZM   3 37
M  ZZI   3 125
M  ZZM   4 37
M  ZZI   4 125
M  ZZM   5 37
M  ZZI   5 124
M  ZZM   6 37
M  ZZI   6 124
M  ZZM   7 2
M  ZZI   7 120
M  ZZM   8 2
M  ZZI   8 120
M  ZZM   9 2
M  ZZI   9 120
M  ZZM  10 2
M  ZZI  10 120
M  ZZM  11 3
M  ZZI  11 121
M  ZZM  12 3
M  ZZI  12 121
M  ZZM  13 3
M  ZZI  13 121
M  ZZM  14 3
M  ZZI  14 121
M  ZZM  15 2
M  ZZI  15 120
M  ZZM  16 2
M  ZZI  16 120
M  ZZM  17 3
M  ZZI  17 121
M  ZZM  18 3
M  ZZI  18 121
M  ZZM  19 1
M  ZZI  19 112
M  ZZM  20 1
M  ZZI  20 112
M  ZZM  21 1
M  ZZI  21 113
M  ZZM  22 1
M  ZZI  22 111
M  ZZM  23 1
M  ZZI  23 112
M  ZZM  24 1
M  ZZI  24 112
M  ZZM  25 9
M  ZZI  25 220
M  ZZM  26 10
M  ZZI  26 191
M  ZZM  27 10
M  ZZI  27 191
M  ZZM  28 10
M  ZZI  28 192
M  ZZM  29 10
M  ZZI  29 192
M  ZZM  30 10
M  ZZI  30 211
M  ZZM  31 7
M  ZZI  31 81
M  ZZM  32 7
M  ZZI  32 81
M  ZZM  33 7
M  ZZI  33 81
M  ZZM  34 7
M  ZZI  34 81
M  ZZM  35 7
M  ZZI  35 81
M  ZZM  36 5
M  ZZI  36 1
M  ZZM  37 5
M  ZZI  37 1
M  ZZM  38 5
M  ZZI  38 1
M  ZZM  39 5
M  ZZI  39 1
M  ZZM  40 5
M  ZZI  40 1
M  ZZM  41 5
M  ZZI  41 1
M  ZZM  42 5
M  ZZI  42 1
M  ZZM  43 5
M  ZZI  43 1
M  ZZM  44 5
M  ZZI  44 1
M  ZZM  45 5
M  ZZI  45 1
M  ZZM  46 5
M  ZZI  46 1
M  ZZM  47 5
M  ZZI  47 1
M  ZZM  48 5
M  ZZI  48 1
M  ZZM  49 5
M  ZZI  49 1
M  ZZM  50 5
M  ZZI  50 1
M  ZZM  51 5
M  ZZI  51 1
M  ZZM  52 5
M  ZZI  52 1
M  ZZM  53 5
M  ZZI  53 1
M  ZZM  54 5
M  ZZI  54 1
M  ZZM  55 5
M  ZZI  55 1
M  ZZM  56 5
M  ZZI  56 1
M  ZZM  57 28
M  ZZI  57 11
M  ZZM  58 28
M  ZZI  58 11
M  ZZM  59 28
M  ZZI  59 11
M  END
> <IX>
99

> <NAME>
86

> <Score>
-34.411256

> <Natom>
59

> <Nflex>
5

> <Hbond>
-6.011289

> <Hphob>
-6.576766

> <VwInt>
-39.713541

> <Dsolv>
19.095132

> <SolEl>
8.746845

> <Eintl>
3.038357

> <RecConf>
ND

> <projPath>
icm/

> <NAME_>
86

$$$$
96
  MOLSOFT 08042117003D

 61 64  0  0  1  0  0  0  0  0999 V2000
  -22.0055   13.0329  -29.7937 C   0  0  0  0  0  0  0  0  0  0  0  0
  -20.7119   13.2582  -29.3637 C   0  0  0  0  0  0  0  0  0  0  0  0
  -22.7919   14.0967  -30.1984 C   0  0  0  0  0  0  0  0  0  0  0  0
  -20.2004   14.5430  -29.3329 C   0  0  0  0  0  0  0  0  0  0  0  0
  -23.0656   16.4734  -30.5714 C   0  0  0  0  0  0  0  0  0  0  0  0
  -22.5636   17.7626  -30.5094 C   0  0  0  0  0  0  0  0  0  0  0  0
  -20.4873   16.9185  -29.6871 C   0  0  0  0  0  0  0  0  0  0  0  0
  -22.2897   15.3938  -30.1699 C   0  0  0  0  0  0  0  0  0  0  0  0
  -20.9873   15.6209  -29.7299 C   0  0  0  0  0  0  0  0  0  0  0  0
  -21.2713   18.0184  -30.0537 C   0  0  0  0  0  0  0  0  0  0  0  0
  -17.8022   23.8958  -24.5754 C   0  0  0  0  0  0  0  0  0  0  0  0
  -16.7413   23.4236  -25.2396 C   0  0  0  0  0  0  0  0  0  0  0  0
  -24.4102   25.8250  -33.0015 C   0  0  0  0  0  0  0  0  0  0  0  0
  -23.7914   24.7043  -33.4056 C   0  0  0  0  0  0  0  0  0  0  0  0
  -19.1593   23.3742  -24.8209 C   0  0  0  0  0  0  0  0  0  0  0  0
  -16.8527   22.3344  -26.2259 C   0  0  0  0  0  0  0  0  0  0  0  0
  -24.1245   24.2597  -34.7894 C   0  0  0  0  0  0  0  0  0  0  0  0
  -25.6780   26.0836  -34.8576 C   0  0  0  0  0  0  0  0  0  0  0  0
  -22.8213   24.0068  -32.5737 C   0  0  0  0  0  0  0  0  0  0  0  0
  -22.4852   22.7130  -32.7197 C   0  0  0  0  0  0  0  0  0  0  0  0
  -21.4691   22.0877  -31.8368 C   0  0  0  0  0  0  0  0  0  0  0  0
  -19.6265   20.7349  -28.1744 C   0  0  0  0  0  0  0  0  0  0  0  0
  -26.7267   26.7661  -35.6955 C   0  0  0  0  0  0  0  0  0  0  0  0
  -18.4015   20.6859  -27.2708 C   0  0  0  0  0  0  0  0  0  0  0  0
  -20.3239   19.9517  -31.3842 C   0  0  0  0  0  0  0  0  0  0  0  0
  -20.7719   19.4550  -29.9913 C   0  0  2  0  0  0  0  0  0  0  0  0
  -25.3530   26.5446  -33.6914 N   0  0  0  0  0  0  0  0  0  0  0  0
  -25.1111   24.9651  -35.4105 N   0  0  0  0  0  0  0  0  0  0  0  0
  -19.2553   22.4009  -25.7848 N   0  0  0  0  0  0  0  0  0  0  0  0
  -18.1405   21.8886  -26.4789 N   0  0  0  0  0  0  0  0  0  0  0  0
  -21.3262   20.7378  -32.0783 N   0  0  0  0  0  0  0  0  0  0  0  0
  -19.7009   19.6363  -29.0124 N   0  0  0  0  0  0  0  0  0  0  0  0
  -20.1187   23.7988  -24.1977 O   0  0  0  0  0  0  0  0  0  0  0  0
  -15.8427   21.8653  -26.7282 O   0  0  0  0  0  0  0  0  0  0  0  0
  -23.5441   23.3541  -35.3623 O   0  0  0  0  0  0  0  0  0  0  0  0
  -20.8255   22.7176  -31.0109 O   0  0  0  0  0  0  0  0  0  0  0  0
  -20.4721   21.6180  -28.1321 O   0  0  0  0  0  0  0  0  0  0  0  0
  -22.4020   12.0228  -29.8110 H   0  0  0  0  0  0  0  0  0  0  0  0
  -20.0955   12.4261  -29.0466 H   0  0  0  0  0  0  0  0  0  0  0  0
  -23.8054   13.9050  -30.5336 H   0  0  0  0  0  0  0  0  0  0  0  0
  -19.1798   14.6936  -28.9925 H   0  0  0  0  0  0  0  0  0  0  0  0
  -24.0793   16.3203  -30.9306 H   0  0  0  0  0  0  0  0  0  0  0  0
  -23.2052   18.5823  -30.8195 H   0  0  0  0  0  0  0  0  0  0  0  0
  -19.4646   17.0552  -29.3551 H   0  0  0  0  0  0  0  0  0  0  0  0
  -17.7010   24.6772  -23.8314 H   0  0  0  0  0  0  0  0  0  0  0  0
  -15.7454   23.7986  -25.0481 H   0  0  0  0  0  0  0  0  0  0  0  0
  -24.1937   26.2237  -32.0149 H   0  0  0  0  0  0  0  0  0  0  0  0
  -22.3744   24.5850  -31.7694 H   0  0  0  0  0  0  0  0  0  0  0  0
  -22.9308   22.0808  -33.4773 H   0  0  0  0  0  0  0  0  0  0  0  0
  -27.7026   26.6351  -35.2188 H   0  0  0  0  0  0  0  0  0  0  0  0
  -26.7665   26.3489  -36.7065 H   0  0  0  0  0  0  0  0  0  0  0  0
  -26.5083   27.8367  -35.7529 H   0  0  0  0  0  0  0  0  0  0  0  0
  -18.5204   19.8523  -26.5700 H   0  0  0  0  0  0  0  0  0  0  0  0
  -17.5204   20.4716  -27.8832 H   0  0  0  0  0  0  0  0  0  0  0  0
  -19.4314   20.5813  -31.3031 H   0  0  0  0  0  0  0  0  0  0  0  0
  -20.0783   19.1196  -32.0487 H   0  0  0  0  0  0  0  0  0  0  0  0
  -21.6069   20.0727  -29.6418 H   0  0  0  0  0  0  0  0  0  0  0  0
  -25.3782   24.6446  -36.3347 H   0  0  0  0  0  0  0  0  0  0  0  0
  -20.1790   22.0782  -26.0612 H   0  0  0  0  0  0  0  0  0  0  0  0
  -21.8875   20.2827  -32.7897 H   0  0  0  0  0  0  0  0  0  0  0  0
  -18.9432   18.9646  -28.9845 H   0  0  0  0  0  0  0  0  0  0  0  0
  1 38  1  0  0  0  0
  1  2  1  0  0  0  0
  1  3  2  0  0  0  0
  2 39  1  0  0  0  0
  2  4  2  0  0  0  0
  3  8  1  0  0  0  0
  3 40  1  0  0  0  0
  4 41  1  0  0  0  0
  4  9  1  0  0  0  0
  5  6  2  0  0  0  0
  5 42  1  0  0  0  0
  5  8  1  0  0  0  0
  6 10  1  0  0  0  0
  6 43  1  0  0  0  0
  7  9  1  0  0  0  0
  7 44  1  0  0  0  0
  7 10  2  0  0  0  0
  8  9  2  0  0  0  0
 26 10  1  0  0  0  0
 11 12  2  0  0  0  0
 11 45  1  0  0  0  0
 11 15  1  0  0  0  0
 12 16  1  0  0  0  0
 12 46  1  0  0  0  0
 13 14  2  0  0  0  0
 13 47  1  0  0  0  0
 13 27  1  0  0  0  0
 14 19  1  0  0  0  0
 14 17  1  0  0  0  0
 15 33  2  0  0  0  0
 15 29  1  0  0  0  0
 16 30  1  0  0  0  0
 16 34  2  0  0  0  0
 17 28  1  0  0  0  0
 17 35  2  0  0  0  0
 18 27  2  0  0  0  0
 18 23  1  0  0  0  0
 18 28  1  0  0  0  0
 19 20  2  0  0  0  0
 19 48  1  0  0  0  0
 20 21  1  0  0  0  0
 20 49  1  0  0  0  0
 21 31  1  0  0  0  0
 21 36  2  0  0  0  0
 22 32  1  0  0  0  0
 22 37  2  0  0  0  0
 22 24  1  0  0  0  0
 23 50  1  0  0  0  0
 23 51  1  0  0  0  0
 23 52  1  0  0  0  0
 24 53  1  0  0  0  0
 24 54  1  0  0  0  0
 24 30  1  0  0  0  0
 26 25  1  0  0  0  0
 25 55  1  0  0  0  0
 25 56  1  0  0  0  0
 25 31  1  0  0  0  0
 26 57  1  0  0  0  0
 26 32  1  0  0  0  0
 28 58  1  0  0  0  0
 29 59  1  0  0  0  0
 29 30  1  0  0  0  0
 31 60  1  0  0  0  0
 32 61  1  0  0  0  0
M  ZZC   1 c1
M  ZZC   2 c2
M  ZZC   3 c3
M  ZZC   4 c4
M  ZZC   5 c5
M  ZZC   6 c6
M  ZZC   7 c7
M  ZZC   8 c8
M  ZZC   9 c9
M  ZZC  10 c10
M  ZZC  11 c11
M  ZZC  12 c12
M  ZZC  13 c13
M  ZZC  14 c14
M  ZZC  15 c15
M  ZZC  16 c16
M  ZZC  17 c17
M  ZZC  18 c18
M  ZZC  19 c19
M  ZZC  20 c20
M  ZZC  21 c21
M  ZZC  22 c22
M  ZZC  23 c23
M  ZZC  24 c24
M  ZZC  25 c25
M  ZZC  26 c26
M  ZZC  27 n1
M  ZZC  28 n2
M  ZZC  29 n3
M  ZZC  30 n4
M  ZZC  31 n5
M  ZZC  32 n6
M  ZZC  33 o1
M  ZZC  34 o2
M  ZZC  35 o3
M  ZZC  36 o4
M  ZZC  37 o5
M  ZZC  38 h1
M  ZZC  39 h2
M  ZZC  40 h3
M  ZZC  41 h4
M  ZZC  42 h5
M  ZZC  43 h6
M  ZZC  44 h7
M  ZZC  45 h8
M  ZZC  46 h9
M  ZZC  47 h10
M  ZZC  48 h11
M  ZZC  49 h12
M  ZZC  50 h13
M  ZZC  51 h14
M  ZZC  52 h15
M  ZZC  53 h16
M  ZZC  54 h17
M  ZZC  55 h18
M  ZZC  56 h19
M  ZZC  57 h20
M  ZZC  58 h21
M  ZZC  59 h22
M  ZZC  60 h23
M  ZZC  61 h24
M  ZZM   1 37
M  ZZI   1 125
M  ZZM   2 37
M  ZZI   2 125
M  ZZM   3 37
M  ZZI   3 125
M  ZZM   4 37
M  ZZI   4 125
M  ZZM   5 37
M  ZZI   5 125
M  ZZM   6 37
M  ZZI   6 125
M  ZZM   7 37
M  ZZI   7 125
M  ZZM   8 37
M  ZZI   8 124
M  ZZM   9 37
M  ZZI   9 124
M  ZZM  10 37
M  ZZI  10 124
M  ZZM  11 2
M  ZZI  11 120
M  ZZM  12 2
M  ZZI  12 120
M  ZZM  13 2
M  ZZI  13 120
M  ZZM  14 2
M  ZZI  14 120
M  ZZM  15 3
M  ZZI  15 121
M  ZZM  16 3
M  ZZI  16 121
M  ZZM  17 3
M  ZZI  17 121
M  ZZM  18 3
M  ZZI  18 121
M  ZZM  19 2
M  ZZI  19 120
M  ZZM  20 2
M  ZZI  20 120
M  ZZM  21 3
M  ZZI  21 121
M  ZZM  22 3
M  ZZI  22 121
M  ZZM  23 1
M  ZZI  23 111
M  ZZM  24 1
M  ZZI  24 112
M  ZZM  25 1
M  ZZI  25 112
M  ZZM  26 1
M  ZZI  26 113
M  ZZM  27 9
M  ZZI  27 220
M  ZZM  28 10
M  ZZI  28 191
M  ZZM  29 10
M  ZZI  29 191
M  ZZM  30 10
M  ZZI  30 192
M  ZZM  31 10
M  ZZI  31 211
M  ZZM  32 10
M  ZZI  32 211
M  ZZM  33 7
M  ZZI  33 81
M  ZZM  34 7
M  ZZI  34 81
M  ZZM  35 7
M  ZZI  35 81
M  ZZM  36 7
M  ZZI  36 81
M  ZZM  37 7
M  ZZI  37 81
M  ZZM  38 5
M  ZZI  38 1
M  ZZM  39 5
M  ZZI  39 1
M  ZZM  40 5
M  ZZI  40 1
M  ZZM  41 5
M  ZZI  41 1
M  ZZM  42 5
M  ZZI  42 1
M  ZZM  43 5
M  ZZI  43 1
M  ZZM  44 5
M  ZZI  44 1
M  ZZM  45 5
M  ZZI  45 1
M  ZZM  46 5
M  ZZI  46 1
M  ZZM  47 5
M  ZZI  47 1
M  ZZM  48 5
M  ZZI  48 1
M  ZZM  49 5
M  ZZI  49 1
M  ZZM  50 5
M  ZZI  50 1
M  ZZM  51 5
M  ZZI  51 1
M  ZZM  52 5
M  ZZI  52 1
M  ZZM  53 5
M  ZZI  53 1
M  ZZM  54 5
M  ZZI  54 1
M  ZZM  55 5
M  ZZI  55 1
M  ZZM  56 5
M  ZZI  56 1
M  ZZM  57 5
M  ZZI  57 1
M  ZZM  58 28
M  ZZI  58 11
M  ZZM  59 28
M  ZZI  59 11
M  ZZM  60 28
M  ZZI  60 11
M  ZZM  61 28
M  ZZI  61 11
M  END
> <IX>
100

> <NAME>
96

> <Score>
-29.688318

> <Natom>
61

> <Nflex>
6

> <Hbond>
-7.19913

> <Hphob>
-5.991965

> <VwInt>
-41.368519

> <Dsolv>
21.567284

> <SolEl>
11.444774

> <Eintl>
10.966004

> <RecConf>
ND

> <projPath>
icm/

> <NAME_>
96

$$$$
